1
    SWAT Sep 7    VER 2018/Rev 670                                                                       0/ 0/   0      0: 0: 0

    General Input/Output section (file.cio):                                        
    02/05/2024 12:00:00 AM ARCGIS-SWAT interface AV                                 
                                                                                    
         Number of years in run:    1
         Area of watershed:      830.234 km2
1
    SWAT Sep 7    VER 2018/Rev 670                                                  

    General Input/Output section (file.cio):                                        
    02/05/2024 12:00:00 AM ARCGIS-SWAT interface AV                                 
                                                                                    
Annual Summary for Watershed in year    1 of simulation

UNIT                                    PERCO    TILE                           WATER     SED     NO3     NO3     NO3     NO3        N       P       P
TIME     PREC    SURQ    LATQ     GWQ    LATE       Q     SW       ET     PET   YIELD   YIELD    SURQ    LATQ    PERC    CROP  ORGANIC SOLUBLE ORGANIC TILENO3
         (mm)    (mm)    (mm)    (mm)    (mm)    (mm)    (mm)    (mm)    (mm)    (mm)   (t/ha)  ------------------(kg nutrient/ha)-------------------- (kg/ha)
    1    0.00    0.00    0.00    0.00    0.00    0.00  131.14    0.00    5.10    0.00    0.00    0.00    0.00    0.00    0.00     0.00    0.00    0.00    0.00    0.00
    2    0.00    0.00    0.00    0.00    0.00    0.00  131.14    0.00    7.03    0.00    0.00    0.00    0.00    0.00    0.00     0.00    0.00    0.00    0.00    0.00
    3    0.00    0.00    0.00    0.00    0.00    0.00  131.14    0.00    5.78    0.00    0.00    0.00    0.00    0.00    0.00     0.00    0.00    0.00    0.00    0.00
    4    0.00    0.00    0.00    0.00    0.00    0.00  131.14    0.00    5.32    0.00    0.00    0.00    0.00    0.00    0.00     0.00    0.00    0.00    0.00    0.00
    5    0.00    0.00    0.00    0.00    0.00    0.00  131.14    0.00    5.46    0.00    0.00    0.00    0.00    0.00    0.00     0.00    0.00    0.00    0.00    0.00
    6    0.00    0.00    0.00    0.00    0.00    0.00  131.14    0.00    5.57    0.00    0.00    0.00    0.00    0.00    0.00     0.00    0.00    0.00    0.00    0.00
    7    0.00    0.00    0.00    0.00    0.00    0.00  131.14    0.00    5.73    0.00    0.00    0.00    0.00    0.00    0.00     0.00    0.00    0.00    0.00    0.00
    8    0.00    0.00    0.00    0.00    0.00    0.00  131.14    0.00    5.54    0.00    0.00    0.00    0.00    0.00    0.00     0.00    0.00    0.00    0.00    0.00
    9    0.00    0.00    0.00    0.00    0.00    0.00  131.14    0.00    5.23    0.00    0.00    0.00    0.00    0.00    0.00     0.00    0.00    0.00    0.00    0.00
   10    0.00    0.00    0.00    0.00    0.00    0.00  131.14    0.00    6.24    0.00    0.00    0.00    0.00    0.00    0.00     0.00    0.00    0.00    0.00    0.00
   11    0.00    0.00    0.00    0.00    0.00    0.00  131.14    0.00    5.05    0.00    0.00    0.00    0.00    0.00    0.00     0.00    0.00    0.00    0.00    0.00
   12    0.00    0.00    0.00    0.00    0.00    0.00  131.14    0.00    5.21    0.00    0.00    0.00    0.00    0.00    0.00     0.00    0.00    0.00    0.00    0.00
   13    0.00    0.00    0.00    0.00    0.00    0.00  131.14    0.00    4.88    0.00    0.00    0.00    0.00    0.00    0.00     0.00    0.00    0.00    0.00    0.00
   14    0.00    0.00    0.00    0.00    0.00    0.00  131.14    0.00    5.65    0.00    0.00    0.00    0.00    0.00    0.00     0.00    0.00    0.00    0.00    0.00
   15    0.00    0.00    0.00    0.00    0.00    0.00  131.14    0.00    5.55    0.00    0.00    0.00    0.00    0.00    0.00     0.00    0.00    0.00    0.00    0.00
   16    0.00    0.00    0.00    0.00    0.00    0.00  131.14    0.00    5.96    0.00    0.00    0.00    0.00    0.00    0.00     0.00    0.00    0.00    0.00    0.00
   17    0.00    0.00    0.00    0.00    0.00    0.00  131.14    0.00    4.90    0.00    0.00    0.00    0.00    0.00    0.00     0.00    0.00    0.00    0.00    0.00
   18    0.00    0.00    0.00    0.00    0.00    0.00  131.14    0.00    5.33    0.00    0.00    0.00    0.00    0.00    0.00     0.00    0.00    0.00    0.00    0.00
   19    0.00    0.00    0.00    0.00    0.00    0.00  131.14    0.00    4.85    0.00    0.00    0.00    0.00    0.00    0.00     0.00    0.00    0.00    0.00    0.00
   20    0.00    0.00    0.00    0.00    0.00    0.00  131.14    0.00    4.74    0.00    0.00    0.00    0.00    0.00    0.00     0.00    0.00    0.00    0.00    0.00
   21    0.00    0.00    0.00    0.00    0.00    0.00  131.14    0.00    6.45    0.00    0.00    0.00    0.00    0.00    0.00     0.00    0.00    0.00    0.00    0.00
   22    0.00    0.00    0.00    0.00    0.00    0.00  131.14    0.00    6.66    0.00    0.00    0.00    0.00    0.00    0.00     0.00    0.00    0.00    0.00    0.00
   23    0.00    0.00    0.00    0.00    0.00    0.00  131.14    0.00    4.79    0.00    0.00    0.00    0.00    0.00    0.00     0.00    0.00    0.00    0.00    0.00
   24    0.00    0.00    0.00    0.00    0.00    0.00  131.14    0.00    5.14    0.00    0.00    0.00    0.00    0.00    0.00     0.00    0.00    0.00    0.00    0.00
   25    0.00    0.00    0.00    0.00    0.00    0.00  131.14    0.00    6.32    0.00    0.00    0.00    0.00    0.00    0.00     0.00    0.00    0.00    0.00    0.00
   26    0.00    0.00    0.00    0.00    0.00    0.00  131.14    0.00    5.60    0.00    0.00    0.00    0.00    0.00    0.00     0.00    0.00    0.00    0.00    0.00
   27    0.00    0.00    0.00    0.00    0.00    0.00  131.14    0.00    5.04    0.00    0.00    0.00    0.00    0.00    0.00     0.00    0.00    0.00    0.00    0.00
   28    0.00    0.00    0.00    0.00    0.00    0.00  131.14    0.00    5.10    0.00    0.00    0.00    0.00    0.00    0.00     0.00    0.00    0.00    0.00    0.00
   29    0.00    0.00    0.00    0.00    0.00    0.00  131.14    0.00    5.02    0.00    0.00    0.00    0.00    0.00    0.00     0.00    0.00    0.00    0.00    0.00
   30    0.00    0.00    0.00    0.00    0.00    0.00  131.14    0.00    5.34    0.00    0.00    0.00    0.00    0.00    0.00     0.00    0.00    0.00    0.00    0.00
   31    0.00    0.00    0.00    0.00    0.00    0.00  131.14    0.00    5.23    0.00    0.00    0.00    0.00    0.00    0.00     0.00    0.00    0.00    0.00    0.00
    1    0.00    0.00    0.00    0.00    0.00    0.00  131.14    0.00  169.80    0.00    0.00    0.00    0.00    0.00    0.00     0.00    0.00    0.00    0.00    0.00
   32    0.00    0.00    0.00    0.00    0.00    0.00  131.14    0.00    5.46    0.00    0.00    0.00    0.00    0.00    0.00     0.00    0.00    0.00    0.00    0.00
   33    0.00    0.00    0.00    0.00    0.00    0.00  131.14    0.00    6.20    0.00    0.00    0.00    0.00    0.00    0.00     0.00    0.00    0.00    0.00    0.00
   34    0.00    0.00    0.00    0.00    0.00    0.00  131.14    0.00    6.13    0.00    0.00    0.00    0.00    0.00    0.00     0.00    0.00    0.00    0.00    0.00
   35    0.00    0.00    0.00    0.00    0.00    0.00  131.14    0.00    5.17    0.00    0.00    0.00    0.00    0.00    0.00     0.00    0.00    0.00    0.00    0.00
   36    0.00    0.00    0.00    0.00    0.00    0.00  131.14    0.00    5.83    0.00    0.00    0.00    0.00    0.00    0.00     0.00    0.00    0.00    0.00    0.00
   37    0.00    0.00    0.00    0.00    0.00    0.00  131.14    0.00    5.21    0.00    0.00    0.00    0.00    0.00    0.00     0.00    0.00    0.00    0.00    0.00
   38    0.00    0.00    0.00    0.00    0.00    0.00  131.14    0.00    6.53    0.00    0.00    0.00    0.00    0.00    0.00     0.00    0.00    0.00    0.00    0.00
   39    0.00    0.00    0.00    0.00    0.00    0.00  131.14    0.00    5.60    0.00    0.00    0.00    0.00    0.00    0.00     0.00    0.00    0.00    0.00    0.00
   40    0.00    0.00    0.00    0.00    0.00    0.00  131.14    0.00    6.31    0.00    0.00    0.00    0.00    0.00    0.00     0.00    0.00    0.00    0.00    0.00
   41    0.00    0.00    0.00    0.00    0.00    0.00  131.14    0.00    5.46    0.00    0.00    0.00    0.00    0.00    0.00     0.00    0.00    0.00    0.00    0.00
   42    0.00    0.00    0.00    0.00    0.00    0.00  131.14    0.00    5.06    0.00    0.00    0.00    0.00    0.00    0.00     0.00    0.00    0.00    0.00    0.00
   43    0.00    0.00    0.00    0.00    0.00    0.00  131.14    0.00    5.72    0.00    0.00    0.00    0.00    0.00    0.00     0.00    0.00    0.00    0.00    0.00
   44    0.00    0.00    0.00    0.00    0.00    0.00  131.14    0.00    6.17    0.00    0.00    0.00    0.00    0.00    0.00     0.00    0.00    0.00    0.00    0.00
   45    0.00    0.00    0.00    0.00    0.00    0.00  131.14    0.00    6.35    0.00    0.00    0.00    0.00    0.00    0.00     0.00    0.00    0.00    0.00    0.00
   46    0.00    0.00    0.00    0.00    0.00    0.00  131.14    0.00    6.45    0.00    0.00    0.00    0.00    0.00    0.00     0.00    0.00    0.00    0.00    0.00
   47    0.00    0.00    0.00    0.00    0.00    0.00  131.14    0.00    5.48    0.00    0.00    0.00    0.00    0.00    0.00     0.00    0.00    0.00    0.00    0.00
   48    0.00    0.00    0.00    0.00    0.00    0.00  131.14    0.00    5.86    0.00    0.00    0.00    0.00    0.00    0.00     0.00    0.00    0.00    0.00    0.00
   49    0.00    0.00    0.00    0.00    0.00    0.00  131.14    0.00    5.89    0.00    0.00    0.00    0.00    0.00    0.00     0.00    0.00    0.00    0.00    0.00
   50    0.00    0.00    0.00    0.00    0.00    0.00  131.14    0.00    5.63    0.00    0.00    0.00    0.00    0.00    0.00     0.00    0.00    0.00    0.00    0.00
   51    0.00    0.00    0.00    0.00    0.00    0.00  131.14    0.00    5.55    0.00    0.00    0.00    0.00    0.00    0.00     0.00    0.00    0.00    0.00    0.00
   52    0.00    0.00    0.00    0.00    0.00    0.00  131.14    0.00    6.56    0.00    0.00    0.00    0.00    0.00    0.00     0.00    0.00    0.00    0.00    0.00
   53    0.00    0.00    0.00    0.00    0.00    0.00  131.14    0.00    6.01    0.00    0.00    0.00    0.00    0.00    0.00     0.00    0.00    0.00    0.00    0.00
   54    0.00    0.00    0.00    0.00    0.00    0.00  131.14    0.00    5.08    0.00    0.00    0.00    0.00    0.00    0.00     0.00    0.00    0.00    0.00    0.00
   55    0.00    0.00    0.00    0.00    0.00    0.00  131.14    0.00    6.52    0.00    0.00    0.00    0.00    0.00    0.00     0.00    0.00    0.00    0.00    0.00
   56    0.00    0.00    0.00    0.00    0.00    0.00  131.14    0.00    5.59    0.00    0.00    0.00    0.00    0.00    0.00     0.00    0.00    0.00    0.00    0.00
   57    0.00    0.00    0.00    0.00    0.00    0.00  131.14    0.00    6.94    0.00    0.00    0.00    0.00    0.00    0.00     0.00    0.00    0.00    0.00    0.00
   58    0.00    0.00    0.00    0.00    0.00    0.00  131.14    0.00    6.23    0.00    0.00    0.00    0.00    0.00    0.00     0.00    0.00    0.00    0.00    0.00
   59    0.00    0.00    0.00    0.00    0.00    0.00  131.14    0.00    5.58    0.00    0.00    0.00    0.00    0.00    0.00     0.00    0.00    0.00    0.00    0.00
    2    0.00    0.00    0.00    0.00    0.00    0.00  131.14    0.00  164.56    0.00    0.00    0.00    0.00    0.00    0.00     0.00    0.00    0.00    0.00    0.00
   60    0.00    0.00    0.00    0.00    0.00    0.00  131.14    0.00    5.89    0.00    0.00    0.00    0.00    0.00    0.00     0.00    0.00    0.00    0.00    0.00
   61    0.00    0.00    0.00    0.00    0.00    0.00  131.14    0.00    5.57    0.00    0.00    0.00    0.00    0.00    0.00     0.00    0.00    0.00    0.00    0.00
   62    0.00    0.00    0.00    0.00    0.00    0.00  131.02    0.12    6.46    0.00    0.00    0.00    0.00    0.00    0.00     0.00    0.00    0.00    0.00    0.00
   63    0.00    0.00    0.00    0.00    0.00    0.00  130.78    0.24    5.72    0.00    0.00    0.00    0.00    0.00    0.03     0.00    0.00    0.00    0.00    0.00
   64    0.00    0.00    0.00    0.00    0.00    0.00  130.43    0.35    6.45    0.00    0.00    0.00    0.00    0.00    0.02     0.00    0.00    0.00    0.00    0.00
   65    0.00    0.00    0.00    0.00    0.00    0.00  129.96    0.47    6.28    0.00    0.00    0.00    0.00    0.00    1.17     0.00    0.00    0.00    0.00    0.00
   66    0.00    0.00    0.00    0.00    0.00    0.00  129.35    0.61    6.26    0.00    0.00    0.00    0.00    0.00    1.36     0.00    0.00    0.00    0.00    0.00
   67    0.00    0.00    0.00    0.00    0.00    0.00  128.54    0.81    6.18    0.00    0.00    0.00    0.00    0.00    0.54     0.00    0.00    0.00    0.00    0.00
   68    0.00    0.00    0.00    0.00    0.00    0.00  126.44    2.10    5.31    0.00    0.00    0.00    0.00    0.00    3.76     0.00    0.00    0.00    0.00    0.00
   69    0.00    0.00    0.00    0.00    0.00    0.00  124.81    1.63    5.46    0.00    0.00    0.00    0.00    0.00    1.50     0.00    0.00    0.00    0.00    0.00
   70    0.00    0.00    0.00    0.00    0.00    0.00  123.48    1.33    6.12    0.00    0.00    0.00    0.00    0.00    0.89     0.00    0.00    0.00    0.00    0.00
   71    0.00    0.00    0.00    0.00    0.00    0.00  120.92    2.57    5.75    0.00    0.00    0.00    0.00    0.00    6.94     0.00    0.00    0.00    0.00    0.00
   72    0.00    0.00    0.00    0.00    0.00    0.00  118.76    2.16    5.83    0.00    0.00    0.00    0.00    0.00    1.14     0.00    0.00    0.00    0.00    0.00
   73    0.00    0.00    0.00    0.00    0.00    0.00  116.16    2.60    6.34    0.00    0.00    0.00    0.00    0.00    1.12     0.00    0.00    0.00    0.00    0.00
   74    0.00    0.00    0.00    0.00    0.00    0.00  113.68    2.49    6.84    0.00    0.00    0.00    0.00    0.00    0.10     0.00    0.00    0.00    0.00    0.00
   75    0.00    0.00    0.00    0.00    0.00    0.00  111.51    2.17    5.94    0.00    0.00    0.00    0.00    0.00    0.02     0.00    0.00    0.00    0.00    0.00
   76    0.00    0.00    0.00    0.00    0.00    0.00  109.33    2.18    7.16    0.00    0.00    0.00    0.00    0.00    0.02     0.00    0.00    0.00    0.00    0.00
   77    0.00    0.00    0.00    0.00    0.00    0.00  107.04    2.29    7.33    0.00    0.00    0.00    0.00    0.00    0.02     0.00    0.00    0.00    0.00    0.00
   78    0.00    0.00    0.00    0.00    0.00    0.00  104.44    2.60    5.89    0.00    0.00    0.00    0.00    0.00    0.02     0.00    0.00    0.00    0.00    0.00
   79    0.00    0.00    0.00    0.00    0.00    0.00  101.50    2.94    5.60    0.00    0.00    0.00    0.00    0.00    0.02     0.00    0.00    0.00    0.00    0.00
   80    0.00    0.00    0.00    0.00    0.00    0.00   99.14    2.36    5.61    0.00    0.00    0.00    0.00    0.00    0.02     0.00    0.00    0.00    0.00    0.00
   81    0.00    0.00    0.00    0.00    0.00    0.00   96.40    2.74    5.79    0.00    0.00    0.00    0.00    0.00    0.02     0.00    0.00    0.00    0.00    0.00
   82    0.00    0.00    0.00    0.00    0.00    0.00   94.08    2.32    6.18    0.00    0.00    0.00    0.00    0.00    0.02     0.00    0.00    0.00    0.00    0.00
   83    0.00    0.00    0.00    0.00    0.00    0.00   91.22    2.86    5.95    0.00    0.00    0.00    0.00    0.00    0.02     0.00    0.00    0.00    0.00    0.00
   84    0.00    0.00    0.00    0.00    0.00    0.00   88.55    2.67    5.76    0.00    0.00    0.00    0.00    0.00    0.02     0.00    0.00    0.00    0.00    0.00
   85    0.00    0.00    0.00    0.00    0.00    0.00   86.32    2.23    6.30    0.00    0.00    0.00    0.00    0.00    0.02     0.00    0.00    0.00    0.00    0.00
   86    0.00    0.00    0.00    0.00    0.00    0.00   84.09    2.23    5.43    0.00    0.00    0.00    0.00    0.00    0.02     0.00    0.00    0.00    0.00    0.00
   87    0.00    0.00    0.00    0.00    0.00    0.00   81.09    3.00    5.85    0.00    0.00    0.00    0.00    0.00    0.02     0.00    0.00    0.00    0.00    0.00
   88    0.00    0.00    0.00    0.00    0.00    0.00   78.52    2.57    5.51    0.00    0.00    0.00    0.00    0.00    0.02     0.00    0.00    0.00    0.00    0.00
   89    0.00    0.00    0.00    0.00    0.00    0.00   75.92    2.61    5.63    0.00    0.00    0.00    0.00    0.00    0.02     0.00    0.00    0.00    0.00    0.00
   90    0.00    0.00    0.00    0.00    0.00    0.00   73.71    2.20    5.83    0.00    0.00    0.00    0.00    0.00    0.02     0.00    0.00    0.00    0.00    0.00
    3    0.00    0.00    0.00    0.00    0.00    0.00   73.71   57.43  186.24    0.00    0.00    0.00    0.00    0.00   18.93     0.00    0.00    0.00    0.00    0.00
   91    0.00    0.00    0.00    0.00    0.00    0.00   70.77    2.94    5.60    0.00    0.00    0.00    0.00    0.00    0.02     0.00    0.00    0.00    0.00    0.00
   92    0.00    0.00    0.00    0.00    0.00    0.00   68.02    2.75    6.19    0.00    0.00    0.00    0.00    0.00    0.02     0.00    0.00    0.00    0.00    0.00
   93    0.00    0.00    0.00    0.00    0.00    0.00   65.78    2.24    6.08    0.00    0.00    0.00    0.00    0.00    0.02     0.00    0.00    0.00    0.00    0.00
   94    0.00    0.00    0.00    0.00    0.00    0.00   62.63    3.15    7.67    0.00    0.00    0.00    0.00    0.00    0.02     0.00    0.00    0.00    0.00    0.00
   95    0.00    0.00    0.00    0.00    0.00    0.00   59.88    2.75    6.51    0.00    0.00    0.00    0.00    0.00    0.02     0.00    0.00    0.00    0.00    0.00
   96    0.00    0.00    0.00    0.00    0.00    0.00   57.31    2.57    6.67    0.00    0.00    0.00    0.00    0.00    0.02     0.00    0.00    0.00    0.00    0.00
   97    0.00    0.00    0.00    0.00    0.00    0.00   54.87    2.44    6.69    0.00    0.00    0.00    0.00    0.00    0.02     0.00    0.00    0.00    0.00    0.00
   98    0.00    0.00    0.00    0.00    0.00    0.00   52.27    2.60    6.52    0.00    0.00    0.00    0.00    0.00    0.02     0.00    0.00    0.00    0.00    0.00
   99    0.00    0.00    0.00    0.00    0.00    0.00   49.88    2.39    4.64    0.00    0.00    0.00    0.00    0.00    0.02     0.00    0.00    0.00    0.00    0.00
  100    0.00    0.00    0.00    0.00    0.00    0.00   47.32    2.56    6.48    0.00    0.00    0.00    0.00    0.00    0.02     0.00    0.00    0.00    0.00    0.00
  101   12.60    2.00    0.00    0.00    0.00    0.00   58.57    1.41    1.96    2.01    0.00    0.00    0.00    0.00    0.02     0.01    0.00    0.00    0.00    0.21
  102   29.00    4.97    0.00    0.00    0.00    0.00   82.72    2.88    3.89    4.97    0.00    0.00    0.00    0.00    0.02     0.02    0.00    0.00    0.00    0.84
  103   44.80    8.47    0.01    0.00    0.00    0.00  122.09    1.78    3.99    8.45    0.00    0.00    0.00    0.00    0.02     0.05    0.00    0.01    0.00    1.15
  104   12.50    1.78    0.01    0.00    0.00    0.00  133.59    1.15    1.63    1.82    0.00    0.00    0.00    0.00    0.02     0.05    0.00    0.01    0.00    0.00
  105    0.00    0.00    0.01    0.00    0.00    0.00  130.45    3.14    6.44    0.01    0.00    0.00    0.00    0.00    0.02     0.04    0.00    0.00    0.00    0.00
  106    0.00    0.00    0.01    0.00    0.00    0.00  126.85    3.60    6.95    0.01    0.00    0.00    0.00    0.00    0.02     0.03    0.00    0.00    0.00    0.00
  107    0.00    0.00    0.01    0.00    0.00    0.00  123.59    3.26    6.63    0.01    0.00    0.00    0.00    0.00    0.02     0.03    0.00    0.00    0.00    0.00
  108    0.00    0.00    0.01    0.00    0.00    0.00  120.15    3.44    6.48    0.01    0.00    0.00    0.00    0.00    0.02     0.02    0.00    0.00    0.00    0.00
  109    0.00    0.00    0.01    0.00    0.00    0.00  116.81    3.35    6.84    0.01    0.00    0.00    0.00    0.00    0.02     0.02    0.00    0.00    0.00    0.00
  110    0.00    0.00    0.01    0.00    0.00    0.00  113.23    3.58    6.37    0.01    0.00    0.00    0.00    0.00    0.02     0.01    0.00    0.00    0.00    0.00
  111    0.00    0.00    0.01    0.00    0.00    0.00  109.71    3.51    6.61    0.01    0.00    0.00    0.00    0.00    0.02     0.01    0.00    0.00    0.00    0.00
  112    0.00    0.00    0.01    0.00    0.00    0.00  105.87    3.84    7.78    0.01    0.00    0.00    0.00    0.00    0.02     0.01    0.00    0.00    0.00    0.00
  113    0.00    0.00    0.01    0.00    0.00    0.00  102.71    3.17    8.29    0.01    0.00    0.00    0.00    0.00    0.02     0.01    0.00    0.00    0.00    0.00
  114    0.00    0.00    0.01    0.00    0.00    0.00   99.28    3.43    7.40    0.01    0.00    0.00    0.00    0.00    0.02     0.01    0.00    0.00    0.00    0.00
  115    0.00    0.00    0.01    0.00    0.00    0.00   95.53    3.75    8.07    0.01    0.00    0.00    0.00    0.00    0.02     0.01    0.00    0.00    0.00    0.00
  116    0.00    0.00    0.00    0.00    0.00    0.00   92.54    2.99    6.13    0.00    0.00    0.00    0.00    0.00    0.02     0.00    0.00    0.00    0.00    0.00
  117    0.00    0.00    0.00    0.00    0.00    0.00   90.33    2.21    5.06    0.00    0.00    0.00    0.00    0.00    0.02     0.00    0.00    0.00    0.00    0.00
  118    0.00    0.00    0.00    0.00    0.00    0.00   86.61    3.72    6.78    0.00    0.00    0.00    0.00    0.00    0.02     0.00    0.00    0.00    0.00    0.00
  119    0.00    0.00    0.00    0.00    0.00    0.00   83.08    3.54    6.59    0.00    0.00    0.00    0.00    0.00    0.02     0.00    0.00    0.00    0.00    0.00
  120    0.00    0.00    0.00    0.00    0.00    0.00   79.46    3.62    7.44    0.00    0.00    0.00    0.00    0.00    0.02     0.00    0.00    0.00    0.00    0.00
    4   98.90   17.22    0.11    0.00    0.00    0.00   79.46   87.75  184.37   17.33    0.00    0.00    0.00    0.00    0.64     0.34    0.00    0.04    0.00    2.19
  121    0.00    0.00    0.00    0.00    0.00    0.00   75.70    3.75    8.98    0.00    0.00    0.00    0.00    0.00    0.02     0.00    0.00    0.00    0.00    0.00
  122    0.00    0.00    0.00    0.00    0.00    0.00   72.90    2.80    5.11    0.00    0.00    0.00    0.00    0.00    0.02     0.00    0.00    0.00    0.00    0.00
  123    0.00    0.00    0.00    0.00    0.00    0.00   70.28    2.62    5.93    0.00    0.00    0.00    0.00    0.00    0.02     0.00    0.00    0.00    0.00    0.00
  124    0.00    0.00    0.00    0.00    0.00    0.00   66.61    3.68    6.39    0.00    0.00    0.00    0.00    0.00    0.02     0.00    0.00    0.00    0.00    0.00
  125    0.00    0.00    0.00    0.00    0.00    0.00   63.03    3.58    6.74    0.00    0.00    0.00    0.00    0.00    0.02     0.00    0.00    0.00    0.00    0.00
  126    0.10    0.01    0.00    0.00    0.00    0.00   61.18    1.95    3.36    0.02    0.00    0.00    0.00    0.00    0.02     0.00    0.00    0.00    0.00    0.00
  127    0.10    0.01    0.00    0.00    0.00    0.00   59.20    2.08    4.32    0.02    0.00    0.00    0.00    0.00    0.02     0.00    0.00    0.00    0.00    0.00
  128    0.00    0.00    0.00    0.00    0.00    0.00   55.94    3.26    6.73    0.00    0.00    0.00    0.00    0.00    0.02     0.00    0.00    0.00    0.00    0.00
  129    0.00    0.00    0.00    0.00    0.00    0.00   52.07    3.87    8.87    0.00    0.00    0.00    0.00    0.00    0.02     0.00    0.00    0.00    0.00    0.00
  130    0.00    0.00    0.00    0.00    0.00    0.00   47.93    4.14    8.09    0.00    0.00    0.00    0.00    0.00    0.02     0.00    0.00    0.00    0.00    0.00
  131    0.00    0.00    0.00    0.00    0.00    0.00   44.90    3.03    5.83    0.00    0.00    0.00    0.00    0.00    0.02     0.00    0.00    0.00    0.00    0.00
  132    0.00    0.00    0.00    0.00    0.00    0.00   42.22    2.68    8.18    0.00    0.00    0.00    0.00    0.00    0.02     0.00    0.00    0.00    0.00    0.00
  133    0.00    0.00    0.00    0.00    0.00    0.00   40.78    1.44    5.57    0.00    0.00    0.00    0.00    0.00    0.02     0.00    0.00    0.00    0.00    0.00
  134    0.00    0.00    0.00    0.00    0.00    0.00   39.27    1.51    6.17    0.00    0.00    0.00    0.00    0.00    0.02     0.00    0.00    0.00    0.00    0.00
  135    0.00    0.00    0.00    0.00    0.00    0.00   38.26    1.01    5.80    0.00    0.00    0.00    0.00    0.00    0.02     0.00    0.00    0.00    0.00    0.00
  136    0.00    0.00    0.00    0.00    0.00    0.00   37.09    1.17    6.57    0.00    0.00    0.00    0.00    0.00    0.02     0.00    0.00    0.00    0.00    0.00
  137    0.00    0.00    0.00    0.00    0.00    0.00   35.94    1.15    8.67    0.00    0.00    0.00    0.00    0.00    0.02     0.00    0.00    0.00    0.00    0.00
  138    0.00    0.00    0.00    0.00    0.00    0.00   34.91    1.04    6.83    0.00    0.00    0.00    0.00    0.00    0.02     0.00    0.00    0.00    0.00    0.00
  139    0.00    0.00    0.00    0.00    0.00    0.00   33.83    1.08   10.20    0.00    0.00    0.00    0.00    0.00    0.02     0.00    0.00    0.00    0.00    0.00
  140    8.50    1.21    0.00    0.00    0.00    0.00   42.26    0.13    0.45    1.21    0.00    0.00    0.00    0.00    0.02     0.00    0.00    0.00    0.00    0.00
  141    0.00    0.00    0.00    0.00    0.00    0.00   40.49    1.77    6.67    0.00    0.00    0.00    0.00    0.00    0.02     0.00    0.00    0.00    0.00    0.00
  142    2.40    0.34    0.00    0.00    0.00    0.00   41.24    1.69    3.28    0.34    0.00    0.00    0.00    0.00    0.02     0.00    0.00    0.00    0.00    0.00
  143    0.00    0.00    0.00    0.00    0.00    0.00   39.37    1.86    6.78    0.00    0.00    0.00    0.00    0.00    0.02     0.00    0.00    0.00    0.00    0.00
  144    0.00    0.00    0.00    0.00    0.00    0.00   38.33    1.04    4.97    0.00    0.00    0.00    0.00    0.00    0.02     0.00    0.00    0.00    0.00    0.00
  145    0.00    0.00    0.00    0.00    0.00    0.00   36.95    1.38    7.87    0.00    0.00    0.00    0.00    0.00    0.02     0.00    0.00    0.00    0.00    0.00
  146    0.20    0.03    0.00    0.00    0.00    0.00   36.98    0.18    1.32    0.03    0.00    0.00    0.00    0.00    0.02     0.00    0.00    0.00    0.00    0.00
  147    0.00    0.00    0.00    0.00    0.00    0.00   36.01    0.96    5.33    0.00    0.00    0.00    0.00    0.00    0.02     0.00    0.00    0.00    0.00    0.00
  148    1.70    0.24    0.00    0.00    0.00    0.00   37.19    0.55    3.19    0.24    0.00    0.00    0.00    0.00    0.02     0.00    0.00    0.00    0.00    0.00
  149    1.10    0.16    0.00    0.00    0.00    0.00   37.11    1.20    2.73    0.16    0.00    0.00    0.00    0.00    0.02     0.00    0.00    0.00    0.00    0.00
  150    0.00    0.00    0.00    0.00    0.00    0.00   35.91    1.19    6.31    0.00    0.00    0.00    0.00    0.00    0.00     0.00    0.00    0.00    0.00    0.00
  151    0.00    0.00    0.00    0.00    0.00    0.00   34.89    1.03    7.95    0.00    0.00    0.00    0.00    0.00    0.00     0.00    0.00    0.00    0.00    0.00
    5   14.10    2.01    0.08    0.00    0.00    0.00   34.89   58.82  185.17    2.09    0.00    0.00    0.00    0.00    0.54     0.01    0.00    0.00    0.00    0.00
  152    0.00    0.00    0.00    0.00    0.00    0.00   33.95    0.93    7.42    0.00    0.00    0.00    0.00    0.00    0.00     0.00    0.00    0.00    0.00    0.00
  153    0.00    0.00    0.00    0.00    0.00    0.00   33.13    0.82    7.91    0.00    0.00    0.00    0.00    0.00    0.00     0.00    0.00    0.00    0.00    0.00
  154   36.30   15.53    0.00    0.00    0.00    0.00   54.15    2.14    2.83   15.48    0.00    0.00    0.00    0.00    0.00     0.01    0.00    0.00    0.00    5.33
  155    9.10    1.30    0.00    0.00    0.00    0.00   62.89    0.61    1.35    1.36    0.00    0.00    0.00    0.00    0.00     0.01    0.00    0.00    0.00    0.00
  156    0.40    0.06    0.00    0.00    0.00    0.00   60.41    2.88    4.02    0.06    0.00    0.00    0.00    0.00    0.00     0.01    0.00    0.00    0.00    0.00
  157    0.00    0.00    0.00    0.00    0.00    0.00   56.21    4.20    8.15    0.00    0.00    0.00    0.00    0.00    0.00     0.01    0.00    0.00    0.00    0.00
  158    0.00    0.00    0.00    0.00    0.00    0.00   52.04    4.17    8.48    0.00    0.00    0.00    0.00    0.00    0.00     0.00    0.00    0.00    0.00    0.00
  159    0.00    0.00    0.00    0.00    0.00    0.00   48.53    3.51    7.48    0.00    0.00    0.00    0.00    0.00    0.00     0.00    0.00    0.00    0.00    0.00
  160    0.00    0.00    0.00    0.00    0.00    0.00   44.01    4.52   10.90    0.00    0.00    0.00    0.00    0.00    0.00     0.00    0.00    0.00    0.00    0.00
  161    0.00    0.00    0.00    0.00    0.00    0.00   41.48    2.53    8.37    0.00    0.00    0.00    0.00    0.00    0.00     0.00    0.00    0.00    0.00    0.00
  162    0.00    0.00    0.00    0.00    0.00    0.00   39.38    2.10    8.80    0.00    0.00    0.00    0.00    0.00    0.00     0.00    0.00    0.00    0.00    0.00
  163    0.00    0.00    0.00    0.00    0.00    0.00   37.83    1.55    7.32    0.00    0.00    0.00    0.00    0.00    0.00     0.00    0.00    0.00    0.00    0.00
  164    0.00    0.00    0.00    0.00    0.00    0.00   36.59    1.24    7.26    0.00    0.00    0.00    0.00    0.00    0.00     0.00    0.00    0.00    0.00    0.00
  165    0.00    0.00    0.00    0.00    0.00    0.00   35.52    1.07    6.46    0.00    0.00    0.00    0.00    0.00    0.00     0.00    0.00    0.00    0.00    0.00
  166    0.00    0.00    0.00    0.00    0.00    0.00   34.50    1.02    7.77    0.00    0.00    0.00    0.00    0.00    0.00     0.00    0.00    0.00    0.00    0.00
  167    0.00    0.00    0.00    0.00    0.00    0.00   34.50    0.00    7.02    0.00    0.00    0.00    0.00    0.00    0.00     0.00    0.00    0.00    0.00    0.00
  168    0.00    0.00    0.00    0.00    0.00    0.00   34.50    0.00    8.87    0.00    0.00    0.00    0.00    0.00    0.00     0.00    0.00    0.00    0.00    0.00
  169    0.00    0.00    0.00    0.00    0.00    0.00   34.50    0.00    9.27    0.00    0.00    0.00    0.00    0.00    0.00     0.00    0.00    0.00    0.00    0.00
  170    0.00    0.00    0.00    0.00    0.00    0.00   34.50    0.00    5.88    0.00    0.00    0.00    0.00    0.00    0.00     0.00    0.00    0.00    0.00    0.00
  171    4.40    0.63    0.00    0.00    0.00    0.00   38.96    0.00    1.62    0.63    0.00    0.00    0.00    0.00    0.00     0.01    0.00    0.00    0.00    0.00
  172    1.30    0.19    0.00    0.00    0.00    0.00   39.24    1.04    2.69    0.19    0.00    0.00    0.00    0.00    0.00     0.01    0.00    0.00    0.00    0.00
  173    0.20    0.03    0.00    0.00    0.00    0.00   39.44    0.00    3.03    0.03    0.00    0.00    0.00    0.00    0.00     0.01    0.00    0.00    0.00    0.00
  174    2.60    0.37    0.00    0.00    0.00    0.00   41.56    0.51    1.04    0.37    0.00    0.00    0.00    0.00    0.00     0.01    0.00    0.00    0.00    0.00
  175    0.00    0.00    0.00    0.00    0.00    0.00   41.56    0.00    7.05    0.00    0.00    0.00    0.00    0.00    0.00     0.01    0.00    0.00    0.00    0.00
  176    0.00    0.00    0.00    0.00    0.00    0.00   41.56    0.00    9.43    0.00    0.00    0.00    0.00    0.00    0.00     0.01    0.00    0.00    0.00    0.00
  177    1.70    0.24    0.00    0.00    0.00    0.00   42.84    0.45    0.91    0.24    0.00    0.00    0.00    0.00    0.00     0.01    0.00    0.00    0.00    0.00
  178    0.00    0.00    0.00    0.00    0.00    0.00   42.84    0.00    8.85    0.00    0.00    0.00    0.00    0.00    0.00     0.01    0.00    0.00    0.00    0.00
  179    0.00    0.00    0.00    0.00    0.00    0.00   42.84    0.00    7.28    0.00    0.00    0.00    0.00    0.00    0.00     0.01    0.00    0.00    0.00    0.00
  180    1.10    0.16    0.00    0.00    0.00    0.00   43.69    0.27    0.54    0.16    0.00    0.00    0.00    0.00    0.00     0.01    0.00    0.00    0.00    0.00
  181    0.30    0.04    0.00    0.00    0.00    0.00   43.99    0.00    2.23    0.04    0.00    0.00    0.00    0.00    0.00     0.01    0.00    0.00    0.00    0.00
    6   57.40   18.54    0.09    0.00    0.00    0.00   43.99   35.56  180.22   18.63    0.00    0.00    0.00    0.00    0.00     0.15    0.00    0.02    0.00    5.33
  182   13.10    2.37    0.00    0.00    0.00    0.00   56.52    0.00    0.61    2.37    0.00    0.00    0.00    0.00    0.00     0.05    0.00    0.01    0.00    0.50
  183    2.00    0.28    0.00    0.00    0.00    0.00   58.05    0.49    1.00    0.29    0.00    0.00    0.00    0.00    0.00     0.04    0.00    0.01    0.00    0.00
  184    1.40    0.20    0.00    0.00    0.00    0.00   59.16    0.31    0.63    0.20    0.00    0.00    0.00    0.00    0.00     0.04    0.00    0.00    0.00    0.00
  185    0.70    0.10    0.00    0.00    0.00    0.00   58.93    0.93    1.89    0.10    0.00    0.00    0.00    0.00    0.00     0.03    0.00    0.00    0.00    0.00
  186    0.00    0.00    0.00    0.00    0.00    0.00   58.93    0.00    8.47    0.00    0.00    0.00    0.00    0.00    0.00     0.03    0.00    0.00    0.00    0.00
  187    0.00    0.00    0.00    0.00    0.00    0.00   58.93    0.00    9.50    0.00    0.00    0.00    0.00    0.00    0.00     0.02    0.00    0.00    0.00    0.00
  188    0.00    0.00    0.00    0.00    0.00    0.00   58.93    0.00    8.80    0.00    0.00    0.00    0.00    0.00    0.00     0.02    0.00    0.00    0.00    0.00
  189    0.00    0.00    0.00    0.00    0.00    0.00   58.93    0.00    7.76    0.00    0.00    0.00    0.00    0.00    0.00     0.01    0.00    0.00    0.00    0.00
  190    1.20    0.17    0.00    0.00    0.00    0.00   59.11    1.04    3.92    0.17    0.00    0.00    0.00    0.00    0.00     0.01    0.00    0.00    0.00    0.00
  191    0.40    0.06    0.00    0.00    0.00    0.00   59.52    0.00    2.13    0.06    0.00    0.00    0.00    0.00    0.00     0.01    0.00    0.00    0.00    0.00
  192    0.00    0.00    0.00    0.00    0.00    0.00   59.52    0.00    9.40    0.00    0.00    0.00    0.00    0.00    0.00     0.01    0.00    0.00    0.00    0.00
  193    2.00    0.28    0.00    0.00    0.00    0.00   61.01    0.54    1.09    0.29    0.00    0.00    0.00    0.00    0.00     0.01    0.00    0.00    0.00    0.00
  194   12.30    1.89    0.00    0.00    0.00    0.00   72.28    0.49    0.99    1.89    0.00    0.00    0.00    0.00    0.00     0.05    0.00    0.01    0.00    0.13
  195   21.20    3.27    0.00    0.00    0.00    0.00   92.64    0.36    0.73    3.27    0.00    0.00    0.00    0.00    0.00     0.10    0.00    0.01    0.00    0.25
  196    8.40    1.55    0.01    0.00    0.00    0.00  100.74    0.00    2.10    1.55    0.00    0.00    0.00    0.00    0.00     0.11    0.00    0.01    0.00    0.35
  197   16.70    4.10    0.01    0.00    0.00    0.00  113.37    1.04    2.70    3.76    0.00    0.00    0.00    0.00    0.00     0.17    0.00    0.02    0.00    0.96
  198   15.50    2.40    0.01    0.00    0.00    0.00  128.01    0.89    1.80    2.76    0.00    0.00    0.00    0.00    0.00     0.19    0.00    0.02    0.00    0.19
  199    0.00    0.00    0.01    0.00    0.00    0.00  128.01    0.00    8.10    0.01    0.00    0.00    0.00    0.00    0.00     0.16    0.00    0.02    0.00    0.00
  200    0.00    0.00    0.01    0.00    0.00    0.00  128.01    0.00    6.29    0.01    0.00    0.00    0.00    0.00    0.00     0.13    0.00    0.02    0.00    0.00
  201    0.00    0.00    0.01    0.00    0.00    0.00  128.01    0.00    6.64    0.01    0.00    0.00    0.00    0.00    0.00     0.11    0.00    0.01    0.00    0.00
  202    0.00    0.00    0.01    0.00    0.00    0.00  128.01    0.00    5.79    0.01    0.00    0.00    0.00    0.00    0.00     0.09    0.00    0.01    0.00    0.00
  203    0.00    0.00    0.01    0.00    0.00    0.00  128.01    0.00    4.60    0.01    0.00    0.00    0.00    0.00    0.00     0.07    0.00    0.01    0.00    0.00
  204    0.00    0.00    0.01    0.00    0.00    0.00  128.01    0.00    8.69    0.01    0.00    0.00    0.00    0.00    0.00     0.06    0.00    0.01    0.00    0.00
  205    0.00    0.00    0.01    0.00    0.00    0.00  128.01    0.00    6.99    0.01    0.00    0.00    0.00    0.00    0.00     0.05    0.00    0.01    0.00    0.00
  206   26.90    9.10    0.01    0.00    0.00    0.00  146.89    0.93    1.88    9.10    0.00    0.00    0.00    0.00    0.00     0.25    0.00    0.03    0.00    2.23
  207    0.00    0.00    0.01    0.00    0.00    0.00  146.89    0.00    5.85    0.01    0.00    0.00    0.00    0.00    0.00     0.21    0.00    0.03    0.00    0.00
  208    0.00    0.00    0.01    0.00    0.00    0.00  146.89    0.00    6.75    0.01    0.00    0.00    0.00    0.00    0.00     0.17    0.00    0.02    0.00    0.00
  209    0.90    0.13    0.01    0.00    0.00    0.00  147.80    0.00    2.28    0.13    0.00    0.00    0.00    0.00    0.00     0.14    0.00    0.02    0.00    0.00
  210   47.20   16.33    0.01    0.00    0.00    0.00  181.20    1.04    2.49   16.34    0.01    0.00    0.00    0.00    0.00     0.52    0.00    0.06    0.00    3.27
  211    0.00    0.00    0.01    0.00    0.00    0.00  181.20    0.00   10.99    0.01    0.00    0.00    0.00    0.00    0.00     0.43    0.00    0.05    0.00    0.00
  212    6.30    0.90    0.01    0.00    0.00    0.00  187.58    0.00    1.68    0.91    0.00    0.00    0.00    0.00    0.00     0.37    0.00    0.05    0.00    0.00
    7  176.20   43.12    0.16    0.00    0.00    0.00  187.58    8.07  142.56   43.28    0.01    0.00    0.00    0.00    0.00     3.65    0.01    0.45    0.00    7.89
  213    2.70    0.38    0.01    0.00    0.00    0.00  189.28    1.04    3.03    0.39    0.00    0.00    0.00    0.00    0.00     0.31    0.00    0.04    0.00    0.00
  214    0.00    0.00    0.01    0.00    0.00    0.00  189.28    0.00    8.91    0.01    0.00    0.00    0.00    0.00    0.00     0.26    0.00    0.03    0.00    0.00
  215    0.00    0.00    0.01    0.00    0.00    0.00  189.28    0.00    8.92    0.01    0.00    0.00    0.00    0.00    0.00     0.21    0.00    0.03    0.00    0.00
  216    0.00    0.00    0.01    0.00    0.00    0.00  189.28    0.00    6.72    0.01    0.00    0.00    0.00    0.00    0.00     0.18    0.00    0.02    0.00    0.00
  217    1.20    0.17    0.01    0.00    0.00    0.00  190.49    0.00    5.19    0.18    0.00    0.00    0.00    0.00    0.00     0.15    0.00    0.02    0.00    0.00
  218    0.00    0.00    0.01    0.00    0.00    0.00  190.49    0.00    7.24    0.01    0.00    0.00    0.00    0.00    0.00     0.12    0.00    0.02    0.00    0.00
  219    0.00    0.00    0.01    0.00    0.00    0.00  190.49    0.00    7.46    0.01    0.00    0.00    0.00    0.00    0.00     0.10    0.00    0.01    0.00    0.00
  220    0.80    0.11    0.01    0.00    0.00    0.00  190.26    1.04    3.07    0.12    0.00    0.00    0.00    0.00    0.00     0.08    0.00    0.01    0.00    0.00
  221    1.00    0.14    0.01    0.00    0.00    0.00  191.28    0.00    3.07    0.15    0.00    0.00    0.00    0.00    0.00     0.07    0.00    0.01    0.00    0.00
  222    8.60    4.72    0.01    0.00    0.96    0.00  193.53    1.57    3.02    4.59    0.00    0.00    0.00    0.00    0.00     0.17    0.00    0.02    0.00    1.01
  223    1.00    0.14    0.01    0.00    0.00    0.00  193.50    1.04    3.44    0.28    0.00    0.00    0.00    0.00    0.00     0.14    0.00    0.02    0.00    0.00
  224    0.10    0.01    0.01    0.00    0.00    0.00  193.60    0.00    2.34    0.02    0.00    0.00    0.00    0.00    0.00     0.12    0.00    0.01    0.00    0.00
  225    0.00    0.00    0.01    0.00    0.00    0.00  193.60    0.00    5.94    0.01    0.00    0.00    0.00    0.00    0.00     0.10    0.00    0.01    0.00    0.00
  226    0.00    0.00    0.01    0.00    0.00    0.00  193.60    0.00    9.15    0.01    0.00    0.00    0.00    0.00    0.00     0.08    0.00    0.01    0.00    0.00
  227    0.00    0.00    0.01    0.00    0.00    0.00  193.60    0.00   10.09    0.01    0.00    0.00    0.00    0.00    0.00     0.07    0.00    0.01    0.00    0.00
  228    0.00    0.00    0.01    0.00    0.00    0.00  193.60    0.00    9.79    0.01    0.00    0.00    0.00    0.00    0.00     0.05    0.00    0.01    0.00    0.00
  229    3.80    0.62    0.01    0.00    2.06    0.00  193.48    1.73    1.75    0.63    0.00    0.00    0.00    0.00    0.00     0.06    0.00    0.01    0.00    0.08
  230    1.10    0.16    0.01    0.00    0.00    0.00  193.56    1.04    2.82    0.16    0.00    0.00    0.00    0.00    0.00     0.05    0.00    0.01    0.00    0.00
  231    0.20    0.03    0.01    0.00    0.00    0.00  193.76    0.00    2.94    0.03    0.00    0.00    0.00    0.00    0.00     0.04    0.00    0.01    0.00    0.00
  232    0.00    0.00    0.01    0.00    0.00    0.00  193.76    0.00    5.01    0.01    0.00    0.00    0.00    0.00    0.00     0.03    0.00    0.00    0.00    0.00
  233    0.20    0.03    0.01    0.00    0.00    0.00  193.97    0.00    2.78    0.03    0.00    0.00    0.00    0.00    0.00     0.03    0.00    0.00    0.00    0.00
  234    0.00    0.00    0.00    0.00    0.00    0.00  193.97    0.00   10.28    0.01    0.00    0.00    0.00    0.00    0.00     0.02    0.00    0.00    0.00    0.00
  235    9.10    3.69    0.01    0.00    4.66    0.00  194.01    1.48    2.85    3.07    0.00    0.00    0.00    0.00    0.00     0.11    0.00    0.01    0.00    0.75
  236    0.40    0.06    0.01    0.00    0.00    0.00  194.41    0.00    1.98    0.69    0.00    0.00    0.00    0.00    0.00     0.09    0.00    0.01    0.00    0.00
  237    0.70    0.10    0.01    0.00    0.11    0.00  193.94    1.07    2.05    0.11    0.00    0.00    0.00    0.00    0.00     0.08    0.00    0.01    0.00    0.00
  238    6.40    0.91    0.01    0.00    4.89    0.00  193.93    1.59    3.06    0.92    0.00    0.00    0.00    0.00    0.00     0.08    0.00    0.01    0.00    0.00
  239   24.30    3.71    0.01    0.00   20.53    0.00  194.40    2.78    3.34    3.72    0.00    0.00    0.00    0.00    0.00     0.16    0.00    0.02    0.00    0.22
  240    0.00    0.00    0.01    0.00    0.39    0.00  190.66    3.34    6.41    0.01    0.00    0.00    0.00    0.00    0.00     0.14    0.00    0.02    0.00    0.00
  241    0.00    0.00    0.01    0.00    0.00    0.00  190.66    0.00    6.96    0.01    0.00    0.00    0.00    0.00    0.00     0.11    0.00    0.01    0.00    0.00
  242    0.00    0.00    0.01    0.00    0.00    0.00  190.66    0.00   11.99    0.01    0.00    0.00    0.00    0.00    0.00     0.09    0.00    0.01    0.00    0.00
  243    0.00    0.00    0.01    0.00    0.00    0.00  190.66    0.00    8.24    0.01    0.00    0.00    0.00    0.00    0.00     0.08    0.00    0.01    0.00    0.00
    8   61.60   14.99    0.22    0.00   33.60    0.00  190.66   17.74  169.83   15.23    0.01    0.00    0.00    0.00    0.00     3.39    0.01    0.42    0.00    2.06
  244    0.00    0.00    0.01    0.00    0.00    0.00  190.66    0.00    7.73    0.01    0.00    0.00    0.00    0.00    0.00     0.06    0.00    0.01    0.00    0.00
  245    0.00    0.00    0.01    0.00    0.00    0.00  190.66    0.00    6.34    0.01    0.00    0.00    0.00    0.00    0.00     0.05    0.00    0.01    0.00    0.00
  246    0.00    0.00    0.01    0.00    0.00    0.00  190.66    0.00    5.84    0.01    0.00    0.00    0.00    0.00    0.00     0.04    0.00    0.01    0.00    0.00
  247   12.80    1.82    0.01    0.00    7.78    0.00  194.92    0.90    0.91    1.84    0.00    0.00    0.00    0.00    0.00     0.08    0.00    0.01    0.00    0.00
  248    3.30    0.47    0.01    0.00    2.94    0.00  193.05    2.26    2.34    0.49    0.00    0.00    0.00    0.00    0.00     0.08    0.00    0.01    0.00    0.00
  249    0.00    0.00    0.01    0.00    0.00    0.00  193.05    0.00    5.92    0.02    0.00    0.00    0.00    0.00    0.00     0.06    0.00    0.01    0.00    0.00
  250    0.30    0.04    0.01    0.00    0.00    0.00  193.35    0.00    3.79    0.06    0.00    0.00    0.00    0.00    0.00     0.05    0.00    0.01    0.00    0.00
  251    0.00    0.00    0.01    0.00    0.00    0.00  193.35    0.00    6.40    0.02    0.00    0.00    0.00    0.00    0.00     0.04    0.00    0.01    0.00    0.00
  252    0.00    0.00    0.01    0.00    0.00    0.00  193.35    0.00    7.23    0.02    0.00    0.00    0.00    0.00    0.00     0.04    0.00    0.00    0.00    0.00
  253    0.50    0.07    0.01    0.00    0.00    0.00  193.86    0.00    3.59    0.09    0.00    0.00    0.00    0.00    0.00     0.03    0.00    0.00    0.00    0.00
  254   93.00   52.97    0.02    0.00   39.45    0.00  196.44    2.74    3.27   52.98    0.08    0.00    0.00    0.01    0.00     1.91    0.00    0.24    0.00    7.87
  255    0.10    0.01    0.02    0.00    2.25    0.00  192.92    1.36    2.61    0.05    0.00    0.00    0.00    0.00    0.00     1.58    0.00    0.19    0.00    0.00
  256    2.10    0.30    0.02    0.00    0.00    0.00  194.99    0.00    1.84    0.33    0.00    0.00    0.00    0.00    0.00     1.30    0.00    0.16    0.00    0.00
  257    0.00    0.00    0.01    0.00    0.00    0.00  194.99    0.00    5.10    0.03    0.00    0.00    0.00    0.00    0.00     1.07    0.00    0.13    0.00    0.00
  258    1.50    0.21    0.01    0.00    1.36    0.00  193.12    2.03    2.04    0.24    0.00    0.00    0.00    0.00    0.00     0.89    0.00    0.11    0.00    0.00
  259    0.00    0.00    0.01    0.00    0.00    0.00  193.12    0.00    6.75    0.03    0.00    0.00    0.00    0.00    0.00     0.73    0.00    0.09    0.00    0.00
  260    0.00    0.00    0.01    0.00    0.00    0.00  193.12    0.00    7.42    0.03    0.00    0.00    0.00    0.00    0.00     0.60    0.00    0.07    0.00    0.00
  261    0.80    0.11    0.01    0.08    0.00    0.00  193.93    0.00    0.95    0.22    0.00    0.00    0.00    0.00    0.00     0.50    0.00    0.06    0.00    0.00
  262    0.00    0.00    0.01    0.16    0.00    0.00  193.93    0.00    6.10    0.18    0.00    0.00    0.00    0.00    0.00     0.41    0.00    0.05    0.00    0.00
  263    6.10    0.87    0.01    0.23    4.61    0.00  194.29    1.20    2.31    1.13    0.00    0.00    0.00    0.00    0.00     0.36    0.00    0.04    0.00    0.00
  264    0.00    0.00    0.01    0.30    0.00    0.00  194.29    0.00    6.38    0.33    0.00    0.00    0.00    0.00    0.00     0.30    0.00    0.04    0.00    0.00
  265    0.00    0.00    0.01    0.36    0.00    0.00  194.29    0.00    6.89    0.39    0.00    0.00    0.00    0.00    0.00     0.24    0.00    0.03    0.00    0.00
  266    0.00    0.00    0.01    0.42    0.00    0.00  194.29    0.00    6.07    0.45    0.00    0.00    0.00    0.00    0.00     0.20    0.00    0.02    0.00    0.00
  267    0.00    0.00    0.01    0.47    0.00    0.00  194.29    0.00    6.92    0.50    0.00    0.00    0.00    0.00    0.00     0.17    0.00    0.02    0.00    0.00
  268    2.30    0.33    0.01    0.52    1.46    0.00  192.62    2.54    2.87    0.88    0.00    0.00    0.00    0.00    0.00     0.14    0.00    0.02    0.00    0.00
  269    2.50    0.36    0.01    0.57    0.14    0.00  192.71    2.30    2.42    0.95    0.00    0.00    0.00    0.00    0.00     0.13    0.00    0.02    0.00    0.00
  270    6.70    0.95    0.01    0.61    4.06    0.00  193.14    2.29    4.39    1.60    0.00    0.00    0.00    0.00    0.00     0.13    0.00    0.02    0.00    0.00
  271    0.30    0.04    0.01    0.66    0.00    0.00  192.40    1.04    3.75    0.73    0.00    0.00    0.00    0.00    0.00     0.11    0.00    0.01    0.00    0.00
  272   12.40    5.04    0.01    0.70    5.41    0.00  192.74    2.83    3.44    5.14    0.00    0.00    0.00    0.00    0.00     0.22    0.00    0.03    0.00    0.81
  273    4.60    0.66    0.01    0.75    2.12    0.00  194.08    1.14    2.19    2.07    0.00    0.00    0.00    0.00    0.00     0.20    0.00    0.03    0.00    0.00
    9  149.30   64.26    0.35    5.83   71.56    0.00  194.08   22.65  133.78   70.82    0.08    0.00    0.00    0.01    0.00    11.73    0.01    1.45    0.00    8.68
  274    0.00    0.00    0.01    0.79    0.00    0.00  194.08    0.00    7.54    0.82    0.00    0.00    0.00    0.00    0.00     0.17    0.00    0.02    0.00    0.00
  275    8.80    1.36    0.01    0.83    7.43    0.00  194.47    1.32    2.53    2.23    0.00    0.00    0.00    0.00    0.00     0.17    0.00    0.02    0.00    0.10
  276    0.80    0.11    0.01    0.87    0.25    0.00  192.79    2.24    2.30    1.02    0.00    0.00    0.00    0.00    0.00     0.14    0.00    0.02    0.00    0.00
  277   31.80    4.53    0.02    0.95   26.37    0.00  196.05    1.75    1.76    5.52    0.00    0.00    0.00    0.00    0.00     0.25    0.00    0.03    0.00    0.00
  278  129.20   82.56    0.03    1.08   47.79    0.00  198.40    1.66    3.18   60.42    0.05    0.00    0.00    0.01    0.00     2.84    0.00    0.35    0.00   11.52
  279   44.30   18.41    0.03    1.25   29.62    0.00  195.56    2.58    2.96   42.99    0.14    0.00    0.00    0.00    0.00     3.03    0.00    0.37    0.00    2.65
  280   11.40    4.66    0.03    1.41    7.93    0.00  194.30    1.55    1.55    6.13    0.00    0.00    0.00    0.00    0.00     2.61    0.00    0.32    0.00    0.61
  281    3.90    0.56    0.03    1.56    2.93    0.00  193.94    1.37    1.37    2.18    0.00    0.00    0.00    0.00    0.00     2.16    0.00    0.27    0.00    0.00
  282    0.00    0.00    0.03    1.70    0.00    0.00  193.94    0.00    6.38    1.76    0.00    0.00    0.00    0.00    0.00     1.78    0.00    0.22    0.00    0.00
  283    0.00    0.00    0.03    1.82    0.00    0.00  193.94    0.00    6.89    1.89    0.00    0.00    0.00    0.00    0.00     1.46    0.00    0.18    0.00    0.00
  284    0.00    0.00    0.03    1.93    0.00    0.00  193.94    0.00    5.88    2.00    0.00    0.00    0.00    0.00    0.00     1.21    0.00    0.15    0.00    0.00
  285    0.00    0.00    0.03    2.03    0.00    0.00  193.94    0.00    6.91    2.10    0.00    0.00    0.00    0.00    0.00     0.99    0.00    0.12    0.00    0.00
  286    1.50    0.21    0.03    2.12    0.42    0.00  193.37    1.67    1.68    2.40    0.00    0.00    0.00    0.00    0.00     0.82    0.00    0.10    0.00    0.00
  287   21.40    6.64    0.03    2.22   13.71    0.00  194.39    2.06    2.07    8.03    0.00    0.00    0.00    0.00    0.00     0.83    0.00    0.10    0.00    1.09
  288   44.60    6.36    0.04    2.36   39.89    0.00  198.27    0.96    1.84    9.71    0.00    0.00    0.00    0.01    0.00     0.84    0.00    0.10    0.00    0.00
  289   29.80    6.51    0.04    2.53   27.64    0.00  195.67    2.26    2.34    9.13    0.00    0.00    0.00    0.00    0.00     0.84    0.00    0.10    0.00    0.67
  290    0.00    0.00    0.04    2.69    1.54    0.00  191.43    2.69    5.15    2.78    0.00    0.00    0.00    0.00    0.00     0.69    0.00    0.09    0.00    0.00
  291    0.00    0.00    0.04    2.83    0.00    0.00  191.43    0.00    6.06    2.92    0.00    0.00    0.00    0.00    0.00     0.57    0.00    0.07    0.00    0.00
  292    0.00    0.00    0.04    2.95    0.00    0.00  191.43    0.00    7.07    3.04    0.00    0.00    0.00    0.00    0.00     0.47    0.00    0.06    0.00    0.00
  293    0.00    0.00    0.03    3.06    0.00    0.00  191.43    0.00    8.43    3.15    0.00    0.00    0.00    0.00    0.00     0.39    0.00    0.05    0.00    0.00
  294    0.40    0.06    0.03    3.16    0.00    0.00  191.84    0.00    1.90    3.31    0.00    0.00    0.00    0.00    0.00     0.32    0.00    0.04    0.00    0.00
  295    0.00    0.00    0.03    3.24    0.00    0.00  191.84    0.00    8.78    3.34    0.00    0.00    0.00    0.00    0.00     0.26    0.00    0.03    0.00    0.00
  296   35.80   12.82    0.04    3.34   21.09    0.00  195.03    2.21    4.23   16.22    0.02    0.00    0.00    0.00    0.00     0.54    0.00    0.07    0.00    0.62
  297   15.60    2.26    0.04    3.45   14.03    0.00  193.93    2.56    2.90    5.86    0.00    0.00    0.00    0.00    0.00     0.49    0.00    0.06    0.00    0.00
  298   37.60   16.07    0.04    3.58   21.24    0.00  194.56    2.70    3.17   19.76    0.02    0.00    0.00    0.00    0.00     0.81    0.00    0.10    0.00    2.10
  299   14.40    2.05    0.04    3.71   12.80    0.00  193.93    2.43    2.66    5.88    0.00    0.00    0.00    0.00    0.00     0.71    0.00    0.09    0.00    0.00
  300    0.00    0.00    0.04    3.82    0.00    0.00  193.93    0.00    5.96    3.94    0.00    0.00    0.00    0.00    0.00     0.59    0.00    0.07    0.00    0.00
  301    0.00    0.00    0.04    3.92    0.00    0.00  193.93    0.00    7.73    4.04    0.00    0.00    0.00    0.00    0.00     0.48    0.00    0.06    0.00    0.00
  302    0.00    0.00    0.04    4.01    0.00    0.00  193.93    0.00    6.77    4.13    0.00    0.00    0.00    0.00    0.00     0.40    0.00    0.05    0.00    0.00
  303    0.00    0.00    0.04    4.08    0.00    0.00  193.93    0.00    6.34    4.20    0.00    0.00    0.00    0.00    0.00     0.33    0.00    0.04    0.00    0.00
  304    0.00    0.00    0.03    4.14    0.00    0.00  193.93    0.00    6.64    4.26    0.00    0.00    0.00    0.00    0.00     0.27    0.00    0.03    0.00    0.00
   10  431.30  165.16    0.97   77.45  274.68    0.00  193.93   32.00  140.96  245.15    0.24    0.00    0.00    0.04    0.00    27.46    0.03    3.39    0.00   19.36
  305    0.00    0.00    0.03    4.19    0.00    0.00  193.93    0.00    6.94    4.31    0.00    0.00    0.00    0.00    0.00     0.22    0.00    0.03    0.00    0.00
  306    5.00    0.71    0.03    4.24    3.60    0.00  194.51    0.87    1.66    5.07    0.00    0.00    0.00    0.00    0.00     0.20    0.00    0.02    0.00    0.00
  307    3.10    0.44    0.03    4.28    2.39    0.00  193.74    1.52    2.90    4.84    0.00    0.00    0.00    0.00    0.00     0.17    0.00    0.02    0.00    0.00
  308    3.20    0.46    0.03    4.31    1.78    0.00  193.98    1.21    2.31    4.89    0.00    0.00    0.00    0.00    0.00     0.15    0.00    0.02    0.00    0.00
  309    1.50    0.21    0.03    4.34    0.45    0.00  192.87    2.18    2.19    4.67    0.00    0.00    0.00    0.00    0.00     0.13    0.00    0.02    0.00    0.00
  310   17.70    2.60    0.03    4.37   14.37    0.00  194.88    1.65    3.15    7.10    0.00    0.00    0.00    0.00    0.00     0.16    0.00    0.02    0.00    0.08
  311    0.90    0.13    0.03    4.40    0.71    0.00  193.53    1.55    1.55    4.65    0.00    0.00    0.00    0.00    0.00     0.13    0.00    0.02    0.00    0.00
  312   17.10    2.44    0.03    4.44   14.07    0.00  193.97    2.52    2.83    7.01    0.00    0.00    0.00    0.00    0.00     0.16    0.00    0.02    0.00    0.00
  313    4.30    0.61    0.03    4.47    3.00    0.00  192.90    2.42    2.63    5.22    0.00    0.00    0.00    0.00    0.00     0.14    0.00    0.02    0.00    0.00
  314    0.00    0.00    0.03    4.50    0.00    0.00  192.90    0.00    7.07    4.63    0.00    0.00    0.00    0.00    0.00     0.12    0.00    0.01    0.00    0.00
  315    0.00    0.00    0.03    4.51    0.00    0.00  192.90    0.00    6.09    4.64    0.00    0.00    0.00    0.00    0.00     0.10    0.00    0.01    0.00    0.00
  316    0.00    0.00    0.03    4.52    0.00    0.00  192.90    0.00    6.70    4.65    0.00    0.00    0.00    0.00    0.00     0.08    0.00    0.01    0.00    0.00
  317    0.00    0.00    0.03    4.52    0.00    0.00  192.90    0.00    5.88    4.65    0.00    0.00    0.00    0.00    0.00     0.07    0.00    0.01    0.00    0.00
  318    0.00    0.00    0.03    4.51    0.00    0.00  192.90    0.00    5.63    4.65    0.00    0.00    0.00    0.00    0.00     0.05    0.00    0.01    0.00    0.00
  319  108.40   71.27    0.03    4.55   35.05    0.00  197.55    1.17    2.24   67.56    0.10    0.00    0.00    0.00    0.00     2.03    0.00    0.25    0.00    9.80
  320    2.90    0.41    0.03    4.59    4.94    0.00  194.35    1.18    2.25   13.54    0.07    0.00    0.00    0.00    0.00     1.70    0.00    0.21    0.00    0.00
  321    0.00    0.00    0.03    4.61    0.00    0.00  194.35    0.00    7.07    4.75    0.00    0.00    0.00    0.00    0.00     1.40    0.00    0.17    0.00    0.00
  322   15.30    6.74    0.03    4.64    8.59    0.00  194.43    1.48    1.48   11.51    0.01    0.00    0.00    0.00    0.00     1.28    0.00    0.16    0.00    1.18
  323    0.00    0.00    0.03    4.66    0.16    0.00  190.82    3.46    6.61    4.82    0.00    0.00    0.00    0.00    0.00     1.06    0.00    0.13    0.00    0.00
  324    0.00    0.00    0.03    4.67    0.00    0.00  190.82    0.00    5.80    4.82    0.00    0.00    0.00    0.00    0.00     0.87    0.00    0.11    0.00    0.00
  325   41.00   15.40    0.03    4.70   22.61    0.00  195.08    2.32    2.44   19.41    0.02    0.00    0.00    0.00    0.00     1.03    0.00    0.13    0.00    1.79
  326   26.30    9.65    0.04    4.75   17.56    0.00  196.29    0.57    1.08   15.40    0.02    0.00    0.00    0.00    0.00     1.05    0.00    0.13    0.00    1.27
  327    0.20    0.03    0.04    4.80    1.35    0.00  193.04    2.10    2.11    4.99    0.00    0.00    0.00    0.00    0.00     0.86    0.00    0.11    0.00    0.00
  328    0.00    0.00    0.03    4.83    0.00    0.00  193.04    0.00    6.85    4.98    0.00    0.00    0.00    0.00    0.00     0.71    0.00    0.09    0.00    0.00
  329    0.00    0.00    0.03    4.85    0.00    0.00  193.04    0.00    7.00    5.01    0.00    0.00    0.00    0.00    0.00     0.59    0.00    0.07    0.00    0.00
  330    0.00    0.00    0.03    4.86    0.00    0.00  193.04    0.00    6.31    5.02    0.00    0.00    0.00    0.00    0.00     0.48    0.00    0.06    0.00    0.00
  331    0.00    0.00    0.03    4.86    0.00    0.00  193.04    0.00    7.52    5.02    0.00    0.00    0.00    0.00    0.00     0.40    0.00    0.05    0.00    0.00
  332    0.00    0.00    0.03    4.86    0.00    0.00  193.04    0.00    7.50    5.02    0.00    0.00    0.00    0.00    0.00     0.33    0.00    0.04    0.00    0.00
  333    0.00    0.00    0.03    4.85    0.00    0.00  193.04    0.00    6.07    5.01    0.00    0.00    0.00    0.00    0.00     0.27    0.00    0.03    0.00    0.00
  334    0.00    0.00    0.03    4.83    0.00    0.00  193.04    0.00    6.21    4.99    0.00    0.00    0.00    0.00    0.00     0.22    0.00    0.03    0.00    0.00
   11  246.90  111.10    0.95  137.51  130.64    0.00  193.04   26.17  136.09  252.85    0.22    0.00    0.00    0.02    0.00    16.17    0.01    1.99    0.00   14.13
  335   17.70    8.79    0.03    4.82    8.03    0.00  195.13    0.72    1.38   13.50    0.01    0.00    0.00    0.00    0.00     0.35    0.00    0.04    0.00    2.02
  336    0.00    0.00    0.03    4.81    0.12    0.00  191.87    3.14    6.00    5.23    0.00    0.00    0.00    0.00    0.00     0.29    0.00    0.04    0.00    0.00
  337    0.00    0.00    0.03    4.78    0.00    0.00  191.87    0.00    6.29    4.94    0.00    0.00    0.00    0.00    0.00     0.24    0.00    0.03    0.00    0.00
  338    0.00    0.00    0.03    4.75    0.00    0.00  191.87    0.00    5.42    4.91    0.00    0.00    0.00    0.00    0.00     0.20    0.00    0.02    0.00    0.00
  339    0.00    0.00    0.02    4.72    0.00    0.00  191.87    0.00    5.32    4.88    0.00    0.00    0.00    0.00    0.00     0.16    0.00    0.02    0.00    0.00
  340    0.00    0.00    0.02    4.68    0.00    0.00  191.87    0.00    4.85    4.84    0.00    0.00    0.00    0.00    0.00     0.13    0.00    0.02    0.00    0.00
  341    0.00    0.00    0.02    4.64    0.00    0.00  191.87    0.00    5.44    4.80    0.00    0.00    0.00    0.00    0.00     0.11    0.00    0.01    0.00    0.00
  342    0.00    0.00    0.02    4.60    0.00    0.00  191.87    0.00    5.97    4.75    0.00    0.00    0.00    0.00    0.00     0.09    0.00    0.01    0.00    0.00
  343    0.00    0.00    0.02    4.55    0.00    0.00  191.87    0.00    5.22    4.71    0.00    0.00    0.00    0.00    0.00     0.07    0.00    0.01    0.00    0.00
  344    0.00    0.00    0.02    4.49    0.00    0.00  191.87    0.00    6.36    4.65    0.00    0.00    0.00    0.00    0.00     0.06    0.00    0.01    0.00    0.00
  345    0.00    0.00    0.02    4.44    0.00    0.00  191.87    0.00    4.73    4.60    0.00    0.00    0.00    0.00    0.00     0.05    0.00    0.01    0.00    0.00
  346    0.00    0.00    0.02    4.38    0.00    0.00  191.87    0.00    4.93    4.54    0.00    0.00    0.00    0.00    0.00     0.04    0.00    0.01    0.00    0.00
  347    0.00    0.00    0.02    4.32    0.00    0.00  191.87    0.00    4.82    4.48    0.00    0.00    0.00    0.00    0.00     0.03    0.00    0.00    0.00    0.00
  348    0.00    0.00    0.02    4.26    0.00    0.00  191.87    0.00    5.19    4.42    0.00    0.00    0.00    0.00    0.00     0.03    0.00    0.00    0.00    0.00
  349    0.00    0.00    0.02    4.20    0.00    0.00  191.87    0.00    4.73    4.36    0.00    0.00    0.00    0.00    0.00     0.02    0.00    0.00    0.00    0.00
  350    0.00    0.00    0.02    4.14    0.00    0.00  191.87    0.00    5.41    4.29    0.00    0.00    0.00    0.00    0.00     0.02    0.00    0.00    0.00    0.00
  351    0.80    0.11    0.02    4.07    0.00    0.00  191.64    1.04    2.18    4.34    0.00    0.00    0.00    0.00    0.00     0.02    0.00    0.00    0.00    0.00
  352   29.00    8.90    0.02    4.03   17.92    0.00  195.89    1.01    1.92   13.09    0.01    0.00    0.00    0.00    0.00     0.19    0.00    0.02    0.00    0.92
  353    0.00    0.00    0.02    3.99    0.80    0.00  192.41    2.68    5.11    4.15    0.00    0.00    0.00    0.00    0.00     0.16    0.00    0.02    0.00    0.00
  354    7.10    1.01    0.02    3.95    4.11    0.00  194.49    0.94    1.80    5.12    0.00    0.00    0.00    0.00    0.00     0.15    0.00    0.02    0.00    0.00
  355   69.90   18.26    0.03    3.98   52.63    0.00  199.56    1.02    1.94   21.34    0.01    0.00    0.00    0.01    0.00     0.49    0.00    0.06    0.00    1.68
  356   43.70    8.63    0.04    4.06   39.42    0.00  198.39    0.79    1.50   13.27    0.01    0.00    0.00    0.00    0.00     0.57    0.00    0.07    0.00    1.03
  357   18.40    4.18    0.04    4.15   18.55    0.00  195.60    1.36    1.37    9.18    0.00    0.00    0.00    0.00    0.00     0.54    0.00    0.07    0.00    0.59
  358    7.40    1.05    0.04    4.24    7.30    0.00  194.06    1.71    1.72    5.49    0.00    0.00    0.00    0.00    0.00     0.46    0.00    0.06    0.00    0.00
  359    0.00    0.00    0.04    4.32    0.00    0.00  194.06    0.00    5.27    4.51    0.00    0.00    0.00    0.00    0.00     0.38    0.00    0.05    0.00    0.00
  360    0.00    0.00    0.04    4.39    0.00    0.00  194.06    0.00    5.99    4.57    0.00    0.00    0.00    0.00    0.00     0.32    0.00    0.04    0.00    0.00
  361    0.00    0.00    0.03    4.44    0.00    0.00  194.06    0.00    4.88    4.62    0.00    0.00    0.00    0.00    0.00     0.26    0.00    0.03    0.00    0.00
  362    0.00    0.00    0.03    4.48    0.00    0.00  194.06    0.00    6.58    4.67    0.00    0.00    0.00    0.00    0.00     0.21    0.00    0.03    0.00    0.00
  363    0.00    0.00    0.03    4.51    0.00    0.00  194.06    0.00    5.02    4.70    0.00    0.00    0.00    0.00    0.00     0.18    0.00    0.02    0.00    0.00
  364    0.00    0.00    0.03    4.54    0.00    0.00  194.06    0.00    5.82    4.72    0.00    0.00    0.00    0.00    0.00     0.15    0.00    0.02    0.00    0.00
  365    0.00    0.00    0.03    4.55    0.00    0.00  194.06    0.00    8.31    4.74    0.00    0.00    0.00    0.00    0.00     0.12    0.00    0.01    0.00    0.00
   12  194.00   50.94    0.79  136.30  148.89    0.00  194.06   14.41  141.43  192.43    0.04    0.00    0.00    0.02    0.00     6.10    0.01    0.75    0.00    6.24

 2001 1429.70  487.35    3.72  357.09  659.36    0.00  194.06  360.59 1935.02  857.81    0.60    0.01    0.00    0.09   20.11    69.01    0.08    8.52    0.00   65.88
1
    SWAT Sep 7    VER 2018/Rev 670                                                  

    General Input/Output section (file.cio):                                        
    02/05/2024 12:00:00 AM ARCGIS-SWAT interface AV                                 
                                                                                    
    FINAL VALUES

1
    SWAT Sep 7    VER 2018/Rev 670                                                  

    General Input/Output section (file.cio):                                        
    02/05/2024 12:00:00 AM ARCGIS-SWAT interface AV                                 
                                                                                    
                                            Average Plant Values (kg/ha)

  HRU       1 SUB   1 BERM  Yld =  2085.9 BIOM =   2972.2

    HRU STATISTICS

                AVE ANNUAL VALUES

   HRU  SUB  SOIL       AREAkm2    CN     AWCmm   USLE_LS  IRRmm  AUTONkh AUTOPkh  MIXEF PRECmm SURQGENmm   GWQmm    ETmm   SEDth  NO3kgh  ORGNkgh BIOMth   YLDth  SURQmm
      1   1   Habitati   .830E+03   86.22  195.00    0.56    0.00  350.00    0.00    0.20 1429.70  487.35  360.81  360.59    0.60    0.01   69.01    2.97    2.09  487.35



                AVE MONTHLY BASIN VALUES
                   SNOW                      WATER               SED
  MON     RAIN     FALL   SURF Q    LAT Q    YIELD       ET    YIELD      PET
          (MM)     (MM)     (MM)     (MM)     (MM)     (MM)   (T/HA)     (MM)
    1     0.00     0.00     0.00     0.00     0.00     0.00     0.00   169.80
    2     0.00     0.00     0.00     0.00     0.00     0.00     0.00   164.56
    3     0.00     0.00     0.00     0.00     0.00    57.43     0.00   186.24
    4    98.90     0.00    17.22     0.11    17.33    87.75     0.00   184.37
    5    14.10     0.00     2.01     0.08     2.09    58.82     0.00   185.17
    6    57.40     0.00    18.54     0.09    18.63    35.56     0.00   180.22
    7   176.20     0.00    43.12     0.16    43.28     8.07     0.01   142.56
    8    61.60     0.00    14.99     0.22    15.23    17.74     0.01   169.83
    9   149.30     0.00    64.26     0.35    70.82    22.65     0.08   133.78
   10   431.30     0.00   165.16     0.97   245.15    32.00     0.24   140.96
   11   246.90     0.00   111.10     0.95   252.85    26.17     0.22   136.09
   12   194.00     0.00    50.94     0.79   192.43    14.41     0.04   141.43

     AVE ANNUAL BASIN STRESS DAYS
               WATER STRESS DAYS =    10.74
               TEMPERATURE STRESS DAYS =     7.00
               NITROGEN STRESS DAYS =    69.13
               PHOSPHORUS STRESS DAYS =     0.00
               AERATION STRESS DAYS =     0.00
1
    SWAT Sep 7    VER 2018/Rev 670                                                  

    General Input/Output section (file.cio):                                        
    02/05/2024 12:00:00 AM ARCGIS-SWAT interface AV                                 
                                                                                    
         AVE ANNUAL BASIN VALUES

              PRECIP =   1429.7 MM
              SNOW FALL =    0.00 MM
              SNOW MELT =     0.00 MM
              SUBLIMATION =     0.00 MM
              SURFACE RUNOFF Q =   487.35 MM
              LATERAL SOIL Q =    3.72 MM
              TILE Q =     0.00 MM
              GROUNDWATER (SHAL AQ) Q =   357.09 MM
              GROUNDWATER (DEEP AQ) Q =     9.66 MM
              REVAP (SHAL AQ => SOIL/PLANTS) =   38.70 MM
              DEEP AQ RECHARGE =    25.18 MM
              TOTAL AQ RECHARGE =  503.56 MM
              TOTAL WATER YLD =   857.81 MM
              PERCOLATION OUT OF SOIL =  659.36 MM
              ET =    360.6 MM
              PET =   1935.0MM
              TRANSMISSION LOSSES =     0.00 MM
              SEPTIC INFLOW =       0.00 MM
              TOTAL SEDIMENT LOADING =      0.60 T/HA
              TILE FROM IMPOUNDED WATER =     0.000 (MM)
              EVAPORATION FROM IMPOUNDED WATER =     0.000 (MM)
              SEEPAGE INTO SOIL FROM IMPOUNDED WATER =    0.000 (MM)
              OVERFLOW FROM IMPOUNDED WATER =    0.000 (MM)
1
    SWAT Sep 7    VER 2018/Rev 670                                                  

    General Input/Output section (file.cio):                                        
    02/05/2024 12:00:00 AM ARCGIS-SWAT interface AV                                 
                                                                                    
              AVE ANNUAL BASIN VALUES


              NUTRIENTS
                   ORGANIC N =    69.010 (KG/HA)
                   ORGANIC P =     8.525 (KG/HA)
                   NO3 YIELD (SQ) =     0.006 (KG/HA)
                   NO3 YIELD (LAT) =    0.000 (KG/HA)
                   NO3 YIELD (TILE) =    0.000 (KG/HA)
                   SOLP YIELD (TILE) =    0.000(KG/HA)
                   SOLP YIELD (SURF INLET RISER) =    0.000 (KG/HA)
                   SOL P YIELD =    0.078 (KG/HA)
                   NO3 LEACHED =     0.087 (KG/HA)
                   P LEACHED =     0.254 (KG/HA)
                   N UPTAKE =    20.106 (KG/HA)
                   P UPTAKE =    5.672 (KG/HA)
                   NO3 YIELD (GWQ) =     0.002 (KG/HA)
                   ACTIVE TO SOLUTION P FLOW =        27.689 (KG/HA)
                   ACTIVE TO STABLE P FLOW =        89.054 (KG/HA)
                   N FERTILIZER APPLIED =   350.000 (KG/HA)
                   P FERTILIZER APPLIED =     0.000 (KG/HA)
                   N FIXATION =     0.000 (KG/HA)
                   DENITRIFICATION =   400.050 (KG/HA)
                   HUMUS MIN ON ACTIVE ORG N =    30.277 (KG/HA)
                   ACTIVE TO STABLE ORG N =    -2.458 (KG/HA)
                   HUMUS MIN ON ACTIVE ORG P =    5.191 (KG/HA)
                   MIN FROM FRESH ORG N =    3.278 (KG/HA)
                   MIN FROM FRESH ORG P =    0.925 (KG/HA)
                   NO3 IN RAINFALL =     0.000 (KG/HA)
                   INITIAL NO3 IN SOIL =      37.386 (KG/HA)
                   FINAL NO3 IN SOIL =         0.037 (KG/HA)
                   INITIAL ORG N IN SOIL =   16714.286 (KG/HA)
                   FINAL ORG N IN SOIL =     16615.837 (KG/HA)
                   INITIAL MIN P IN SOIL =    3054.580 (KG/HA)
                   FINAL MIN P IN SOIL =      3042.515 (KG/HA)
                   INITIAL ORG P IN SOIL =    2047.500 (KG/HA)
                   FINAL ORG P IN SOIL =    2034.110 (KG/HA)
                   NO3 IN FERT =   350.000 (KG/HA)
                   AMMONIA IN FERT =     0.000 (KG/HA)
                   ORG N IN FERT =     0.000 (KG/HA)
                   MINERAL P IN FERT =     0.000 (KG/HA)
                   ORG P IN FERT =     0.000 (KG/HA)
                   N REMOVED IN YIELD =    16.085 (KG/HA)
                   P REMOVED IN YIELD =     4.537 (KG/HA)
                   AMMONIA VOLATILIZATION =     0.000 (KG/HA)
                   AMMONIA NITRIFICATION =      0.000 (KG/HA)
                   NO3 EVAP-LAYER 2 TO 1 =    0.001

                   DIE-GRO P Q =           0.0 (No/M2)
                   DIE-GRO LP Q =           0.0 (No/M2)
                   DIE-GRO P SED =          0.0 (No/M2)
                   DIE-GRO LP SED =          0.0 (No/M2)
                   BACT P RUNOFF =          0.0 (No/M2)
                   BACT LP RUNOFF =          0.0 (No/M2)
                   BACT P SEDIMENT =          0.0 (No/M2)
                   BACT LP SEDIMENT =          0.0 (No/M2)
                   BACT P INCORP =          0.0 (No/M2)
                   BACT LP INCORP =          0.0 (No/M2)

                   NITRATE SEPTIC =         0.00 (kg/ha)
                   AMMONIA SEPTIC =         0.00 (kg/ha)
                   ORG N SEPTIC =         0.00 (kg/ha)
                   FRESH ORGN SEPTIC =         0.00 (kg/ha)
                   ORG P SEPTIC =         0.00 (kg/ha)
                   FRESH ORGP SEPTIC =         0.00 (kg/ha)
                   SOL P SEPTIC =         0.00 (kg/ha)
                   BOD SEPTIC =         0.00 (kg/ha)
