1
    SWAT Sep 7    VER 2018/Rev 670                                                                       0/ 0/   0      0: 0: 0

    General Input/Output section (file.cio):                                        
    02/05/2024 12:00:00 AM ARCGIS-SWAT interface AV                                 
                                                                                    
         Number of years in run:    1
         Area of watershed:      830.234 km2
1
    SWAT Sep 7    VER 2018/Rev 670                                                  

    General Input/Output section (file.cio):                                        
    02/05/2024 12:00:00 AM ARCGIS-SWAT interface AV                                 
                                                                                    
Annual Summary for Watershed in year    1 of simulation

UNIT                                    PERCO    TILE                           WATER     SED     NO3     NO3     NO3     NO3        N       P       P
TIME     PREC    SURQ    LATQ     GWQ    LATE       Q     SW       ET     PET   YIELD   YIELD    SURQ    LATQ    PERC    CROP  ORGANIC SOLUBLE ORGANIC TILENO3
         (mm)    (mm)    (mm)    (mm)    (mm)    (mm)    (mm)    (mm)    (mm)    (mm)   (t/ha)  ------------------(kg nutrient/ha)-------------------- (kg/ha)
    1    0.00    0.00    0.00    0.00    0.00    0.00  131.14    0.00    5.10    0.00    0.00    0.00    0.00    0.00    0.00     0.00    0.00    0.00    0.00    0.00
    2    0.00    0.00    0.00    0.00    0.00    0.00  131.14    0.00    7.03    0.00    0.00    0.00    0.00    0.00    0.00     0.00    0.00    0.00    0.00    0.00
    3    0.00    0.00    0.00    0.00    0.00    0.00  131.14    0.00    5.78    0.00    0.00    0.00    0.00    0.00    0.00     0.00    0.00    0.00    0.00    0.00
    4    0.00    0.00    0.00    0.00    0.00    0.00  131.14    0.00    5.32    0.00    0.00    0.00    0.00    0.00    0.00     0.00    0.00    0.00    0.00    0.00
    5    0.00    0.00    0.00    0.00    0.00    0.00  131.14    0.00    5.46    0.00    0.00    0.00    0.00    0.00    0.00     0.00    0.00    0.00    0.00    0.00
    6    0.00    0.00    0.00    0.00    0.00    0.00  131.14    0.00    5.57    0.00    0.00    0.00    0.00    0.00    0.00     0.00    0.00    0.00    0.00    0.00
    7    0.00    0.00    0.00    0.00    0.00    0.00  131.14    0.00    5.73    0.00    0.00    0.00    0.00    0.00    0.00     0.00    0.00    0.00    0.00    0.00
    8    0.00    0.00    0.00    0.00    0.00    0.00  131.14    0.00    5.54    0.00    0.00    0.00    0.00    0.00    0.00     0.00    0.00    0.00    0.00    0.00
    9    0.00    0.00    0.00    0.00    0.00    0.00  131.14    0.00    5.23    0.00    0.00    0.00    0.00    0.00    0.00     0.00    0.00    0.00    0.00    0.00
   10    0.00    0.00    0.00    0.00    0.00    0.00  131.14    0.00    6.24    0.00    0.00    0.00    0.00    0.00    0.00     0.00    0.00    0.00    0.00    0.00
   11    0.00    0.00    0.00    0.00    0.00    0.00  131.14    0.00    5.05    0.00    0.00    0.00    0.00    0.00    0.00     0.00    0.00    0.00    0.00    0.00
   12    0.00    0.00    0.00    0.00    0.00    0.00  131.14    0.00    5.21    0.00    0.00    0.00    0.00    0.00    0.00     0.00    0.00    0.00    0.00    0.00
   13    0.00    0.00    0.00    0.00    0.00    0.00  131.14    0.00    4.88    0.00    0.00    0.00    0.00    0.00    0.00     0.00    0.00    0.00    0.00    0.00
   14    0.00    0.00    0.00    0.00    0.00    0.00  131.14    0.00    5.65    0.00    0.00    0.00    0.00    0.00    0.00     0.00    0.00    0.00    0.00    0.00
   15    0.00    0.00    0.00    0.00    0.00    0.00  131.14    0.00    5.55    0.00    0.00    0.00    0.00    0.00    0.00     0.00    0.00    0.00    0.00    0.00
   16    0.00    0.00    0.00    0.00    0.00    0.00  131.14    0.00    5.96    0.00    0.00    0.00    0.00    0.00    0.00     0.00    0.00    0.00    0.00    0.00
   17    0.00    0.00    0.00    0.00    0.00    0.00  131.14    0.00    4.90    0.00    0.00    0.00    0.00    0.00    0.00     0.00    0.00    0.00    0.00    0.00
   18    0.00    0.00    0.00    0.00    0.00    0.00  131.14    0.00    5.33    0.00    0.00    0.00    0.00    0.00    0.00     0.00    0.00    0.00    0.00    0.00
   19    0.00    0.00    0.00    0.00    0.00    0.00  131.14    0.00    4.85    0.00    0.00    0.00    0.00    0.00    0.00     0.00    0.00    0.00    0.00    0.00
   20    0.00    0.00    0.00    0.00    0.00    0.00  131.14    0.00    4.74    0.00    0.00    0.00    0.00    0.00    0.00     0.00    0.00    0.00    0.00    0.00
   21    0.00    0.00    0.00    0.00    0.00    0.00  131.14    0.00    6.45    0.00    0.00    0.00    0.00    0.00    0.00     0.00    0.00    0.00    0.00    0.00
   22    0.00    0.00    0.00    0.00    0.00    0.00  131.14    0.00    6.66    0.00    0.00    0.00    0.00    0.00    0.00     0.00    0.00    0.00    0.00    0.00
   23    0.00    0.00    0.00    0.00    0.00    0.00  131.14    0.00    4.79    0.00    0.00    0.00    0.00    0.00    0.00     0.00    0.00    0.00    0.00    0.00
   24    0.00    0.00    0.00    0.00    0.00    0.00  131.14    0.00    5.14    0.00    0.00    0.00    0.00    0.00    0.00     0.00    0.00    0.00    0.00    0.00
   25    0.00    0.00    0.00    0.00    0.00    0.00  131.14    0.00    6.32    0.00    0.00    0.00    0.00    0.00    0.00     0.00    0.00    0.00    0.00    0.00
   26    0.00    0.00    0.00    0.00    0.00    0.00  131.14    0.00    5.60    0.00    0.00    0.00    0.00    0.00    0.00     0.00    0.00    0.00    0.00    0.00
   27    0.00    0.00    0.00    0.00    0.00    0.00  131.14    0.00    5.04    0.00    0.00    0.00    0.00    0.00    0.00     0.00    0.00    0.00    0.00    0.00
   28    0.00    0.00    0.00    0.00    0.00    0.00  131.14    0.00    5.10    0.00    0.00    0.00    0.00    0.00    0.00     0.00    0.00    0.00    0.00    0.00
   29    0.00    0.00    0.00    0.00    0.00    0.00  131.14    0.00    5.02    0.00    0.00    0.00    0.00    0.00    0.00     0.00    0.00    0.00    0.00    0.00
   30    0.00    0.00    0.00    0.00    0.00    0.00  131.14    0.00    5.34    0.00    0.00    0.00    0.00    0.00    0.00     0.00    0.00    0.00    0.00    0.00
   31    0.00    0.00    0.00    0.00    0.00    0.00  131.14    0.00    5.23    0.00    0.00    0.00    0.00    0.00    0.00     0.00    0.00    0.00    0.00    0.00
    1    0.00    0.00    0.00    0.00    0.00    0.00  131.14    0.00  169.80    0.00    0.00    0.00    0.00    0.00    0.00     0.00    0.00    0.00    0.00    0.00
   32    0.00    0.00    0.00    0.00    0.00    0.00  131.14    0.00    5.46    0.00    0.00    0.00    0.00    0.00    0.00     0.00    0.00    0.00    0.00    0.00
   33    0.00    0.00    0.00    0.00    0.00    0.00  131.14    0.00    6.20    0.00    0.00    0.00    0.00    0.00    0.00     0.00    0.00    0.00    0.00    0.00
   34    0.00    0.00    0.00    0.00    0.00    0.00  131.14    0.00    6.13    0.00    0.00    0.00    0.00    0.00    0.00     0.00    0.00    0.00    0.00    0.00
   35    0.00    0.00    0.00    0.00    0.00    0.00  131.14    0.00    5.17    0.00    0.00    0.00    0.00    0.00    0.00     0.00    0.00    0.00    0.00    0.00
   36    0.00    0.00    0.00    0.00    0.00    0.00  131.14    0.00    5.83    0.00    0.00    0.00    0.00    0.00    0.00     0.00    0.00    0.00    0.00    0.00
   37    0.00    0.00    0.00    0.00    0.00    0.00  131.14    0.00    5.21    0.00    0.00    0.00    0.00    0.00    0.00     0.00    0.00    0.00    0.00    0.00
   38    0.00    0.00    0.00    0.00    0.00    0.00  131.14    0.00    6.53    0.00    0.00    0.00    0.00    0.00    0.00     0.00    0.00    0.00    0.00    0.00
   39    0.00    0.00    0.00    0.00    0.00    0.00  131.14    0.00    5.60    0.00    0.00    0.00    0.00    0.00    0.00     0.00    0.00    0.00    0.00    0.00
   40    0.00    0.00    0.00    0.00    0.00    0.00  131.14    0.00    6.31    0.00    0.00    0.00    0.00    0.00    0.00     0.00    0.00    0.00    0.00    0.00
   41    0.00    0.00    0.00    0.00    0.00    0.00  131.14    0.00    5.46    0.00    0.00    0.00    0.00    0.00    0.00     0.00    0.00    0.00    0.00    0.00
   42    0.00    0.00    0.00    0.00    0.00    0.00  131.14    0.00    5.06    0.00    0.00    0.00    0.00    0.00    0.00     0.00    0.00    0.00    0.00    0.00
   43    0.00    0.00    0.00    0.00    0.00    0.00  131.14    0.00    5.72    0.00    0.00    0.00    0.00    0.00    0.00     0.00    0.00    0.00    0.00    0.00
   44    0.00    0.00    0.00    0.00    0.00    0.00  131.14    0.00    6.17    0.00    0.00    0.00    0.00    0.00    0.00     0.00    0.00    0.00    0.00    0.00
   45    0.00    0.00    0.00    0.00    0.00    0.00  131.14    0.00    6.35    0.00    0.00    0.00    0.00    0.00    0.00     0.00    0.00    0.00    0.00    0.00
   46    0.00    0.00    0.00    0.00    0.00    0.00  131.14    0.00    6.45    0.00    0.00    0.00    0.00    0.00    0.00     0.00    0.00    0.00    0.00    0.00
   47    0.00    0.00    0.00    0.00    0.00    0.00  131.14    0.00    5.48    0.00    0.00    0.00    0.00    0.00    0.00     0.00    0.00    0.00    0.00    0.00
   48    0.00    0.00    0.00    0.00    0.00    0.00  131.14    0.00    5.86    0.00    0.00    0.00    0.00    0.00    0.00     0.00    0.00    0.00    0.00    0.00
   49    0.00    0.00    0.00    0.00    0.00    0.00  131.14    0.00    5.89    0.00    0.00    0.00    0.00    0.00    0.00     0.00    0.00    0.00    0.00    0.00
   50    0.00    0.00    0.00    0.00    0.00    0.00  131.14    0.00    5.63    0.00    0.00    0.00    0.00    0.00    0.00     0.00    0.00    0.00    0.00    0.00
   51    0.00    0.00    0.00    0.00    0.00    0.00  131.14    0.00    5.55    0.00    0.00    0.00    0.00    0.00    0.00     0.00    0.00    0.00    0.00    0.00
   52    0.00    0.00    0.00    0.00    0.00    0.00  131.14    0.00    6.56    0.00    0.00    0.00    0.00    0.00    0.00     0.00    0.00    0.00    0.00    0.00
   53    0.00    0.00    0.00    0.00    0.00    0.00  131.14    0.00    6.01    0.00    0.00    0.00    0.00    0.00    0.00     0.00    0.00    0.00    0.00    0.00
   54    0.00    0.00    0.00    0.00    0.00    0.00  131.14    0.00    5.08    0.00    0.00    0.00    0.00    0.00    0.00     0.00    0.00    0.00    0.00    0.00
   55    0.00    0.00    0.00    0.00    0.00    0.00  131.14    0.00    6.52    0.00    0.00    0.00    0.00    0.00    0.00     0.00    0.00    0.00    0.00    0.00
   56    0.00    0.00    0.00    0.00    0.00    0.00  131.14    0.00    5.59    0.00    0.00    0.00    0.00    0.00    0.00     0.00    0.00    0.00    0.00    0.00
   57    0.00    0.00    0.00    0.00    0.00    0.00  131.14    0.00    6.94    0.00    0.00    0.00    0.00    0.00    0.00     0.00    0.00    0.00    0.00    0.00
   58    0.00    0.00    0.00    0.00    0.00    0.00  131.14    0.00    6.23    0.00    0.00    0.00    0.00    0.00    0.00     0.00    0.00    0.00    0.00    0.00
   59    0.00    0.00    0.00    0.00    0.00    0.00  131.14    0.00    5.58    0.00    0.00    0.00    0.00    0.00    0.00     0.00    0.00    0.00    0.00    0.00
    2    0.00    0.00    0.00    0.00    0.00    0.00  131.14    0.00  164.56    0.00    0.00    0.00    0.00    0.00    0.00     0.00    0.00    0.00    0.00    0.00
   60    0.00    0.00    0.00    0.00    0.00    0.00  131.14    0.00    5.89    0.00    0.00    0.00    0.00    0.00    0.00     0.00    0.00    0.00    0.00    0.00
   61    0.00    0.00    0.00    0.00    0.00    0.00  131.14    0.00    5.57    0.00    0.00    0.00    0.00    0.00    0.00     0.00    0.00    0.00    0.00    0.00
   62    0.00    0.00    0.00    0.00    0.00    0.00  131.02    0.12    6.46    0.00    0.00    0.00    0.00    0.00    0.00     0.00    0.00    0.00    0.00    0.00
   63    0.00    0.00    0.00    0.00    0.00    0.00  130.78    0.24    5.72    0.00    0.00    0.00    0.00    0.00    0.03     0.00    0.00    0.00    0.00    0.00
   64    0.00    0.00    0.00    0.00    0.00    0.00  130.43    0.35    6.45    0.00    0.00    0.00    0.00    0.00    0.02     0.00    0.00    0.00    0.00    0.00
   65    0.00    0.00    0.00    0.00    0.00    0.00  129.96    0.47    6.28    0.00    0.00    0.00    0.00    0.00    1.17     0.00    0.00    0.00    0.00    0.00
   66    0.00    0.00    0.00    0.00    0.00    0.00  129.35    0.61    6.26    0.00    0.00    0.00    0.00    0.00    1.36     0.00    0.00    0.00    0.00    0.00
   67    0.00    0.00    0.00    0.00    0.00    0.00  128.54    0.81    6.18    0.00    0.00    0.00    0.00    0.00    0.54     0.00    0.00    0.00    0.00    0.00
   68    0.00    0.00    0.00    0.00    0.00    0.00  126.44    2.10    5.31    0.00    0.00    0.00    0.00    0.00    3.75     0.00    0.00    0.00    0.00    0.00
   69    0.00    0.00    0.00    0.00    0.00    0.00  124.81    1.63    5.46    0.00    0.00    0.00    0.00    0.00    1.50     0.00    0.00    0.00    0.00    0.00
   70    0.00    0.00    0.00    0.00    0.00    0.00  123.49    1.32    6.12    0.00    0.00    0.00    0.00    0.00    0.89     0.00    0.00    0.00    0.00    0.00
   71    0.00    0.00    0.00    0.00    0.00    0.00  120.92    2.57    5.75    0.00    0.00    0.00    0.00    0.00    6.94     0.00    0.00    0.00    0.00    0.00
   72    0.00    0.00    0.00    0.00    0.00    0.00  118.76    2.16    5.83    0.00    0.00    0.00    0.00    0.00    1.14     0.00    0.00    0.00    0.00    0.00
   73    0.00    0.00    0.00    0.00    0.00    0.00  116.17    2.60    6.34    0.00    0.00    0.00    0.00    0.00    1.12     0.00    0.00    0.00    0.00    0.00
   74    0.00    0.00    0.00    0.00    0.00    0.00  113.68    2.49    6.84    0.00    0.00    0.00    0.00    0.00    0.10     0.00    0.00    0.00    0.00    0.00
   75    0.00    0.00    0.00    0.00    0.00    0.00  111.52    2.17    5.94    0.00    0.00    0.00    0.00    0.00    0.02     0.00    0.00    0.00    0.00    0.00
   76    0.00    0.00    0.00    0.00    0.00    0.00  109.33    2.18    7.16    0.00    0.00    0.00    0.00    0.00    0.02     0.00    0.00    0.00    0.00    0.00
   77    0.00    0.00    0.00    0.00    0.00    0.00  107.04    2.29    7.33    0.00    0.00    0.00    0.00    0.00    0.02     0.00    0.00    0.00    0.00    0.00
   78    0.00    0.00    0.00    0.00    0.00    0.00  104.44    2.60    5.89    0.00    0.00    0.00    0.00    0.00    0.02     0.00    0.00    0.00    0.00    0.00
   79    0.00    0.00    0.00    0.00    0.00    0.00  101.51    2.94    5.60    0.00    0.00    0.00    0.00    0.00    0.02     0.00    0.00    0.00    0.00    0.00
   80    0.00    0.00    0.00    0.00    0.00    0.00   99.15    2.36    5.61    0.00    0.00    0.00    0.00    0.00    0.02     0.00    0.00    0.00    0.00    0.00
   81    0.00    0.00    0.00    0.00    0.00    0.00   96.41    2.74    5.79    0.00    0.00    0.00    0.00    0.00    0.02     0.00    0.00    0.00    0.00    0.00
   82    0.00    0.00    0.00    0.00    0.00    0.00   94.09    2.32    6.18    0.00    0.00    0.00    0.00    0.00    0.02     0.00    0.00    0.00    0.00    0.00
   83    0.00    0.00    0.00    0.00    0.00    0.00   91.23    2.86    5.95    0.00    0.00    0.00    0.00    0.00    0.02     0.00    0.00    0.00    0.00    0.00
   84    0.00    0.00    0.00    0.00    0.00    0.00   88.56    2.67    5.76    0.00    0.00    0.00    0.00    0.00    0.02     0.00    0.00    0.00    0.00    0.00
   85    0.00    0.00    0.00    0.00    0.00    0.00   86.33    2.23    6.30    0.00    0.00    0.00    0.00    0.00    0.02     0.00    0.00    0.00    0.00    0.00
   86    0.00    0.00    0.00    0.00    0.00    0.00   84.10    2.23    5.43    0.00    0.00    0.00    0.00    0.00    0.02     0.00    0.00    0.00    0.00    0.00
   87    0.00    0.00    0.00    0.00    0.00    0.00   81.10    3.00    5.85    0.00    0.00    0.00    0.00    0.00    0.02     0.00    0.00    0.00    0.00    0.00
   88    0.00    0.00    0.00    0.00    0.00    0.00   78.53    2.57    5.51    0.00    0.00    0.00    0.00    0.00    0.02     0.00    0.00    0.00    0.00    0.00
   89    0.00    0.00    0.00    0.00    0.00    0.00   75.93    2.60    5.63    0.00    0.00    0.00    0.00    0.00    0.02     0.00    0.00    0.00    0.00    0.00
   90    0.00    0.00    0.00    0.00    0.00    0.00   73.73    2.20    5.83    0.00    0.00    0.00    0.00    0.00    0.02     0.00    0.00    0.00    0.00    0.00
    3    0.00    0.00    0.00    0.00    0.00    0.00   73.73   57.42  186.24    0.00    0.00    0.00    0.00    0.00   18.92     0.00    0.00    0.00    0.00    0.00
   91    0.00    0.00    0.00    0.00    0.00    0.00   70.79    2.94    5.60    0.00    0.00    0.00    0.00    0.00    0.02     0.00    0.00    0.00    0.00    0.00
   92    0.00    0.00    0.00    0.00    0.00    0.00   68.04    2.75    6.19    0.00    0.00    0.00    0.00    0.00    0.02     0.00    0.00    0.00    0.00    0.00
   93    0.00    0.00    0.00    0.00    0.00    0.00   65.79    2.24    6.08    0.00    0.00    0.00    0.00    0.00    0.02     0.00    0.00    0.00    0.00    0.00
   94    0.00    0.00    0.00    0.00    0.00    0.00   62.65    3.14    7.67    0.00    0.00    0.00    0.00    0.00    0.02     0.00    0.00    0.00    0.00    0.00
   95    0.00    0.00    0.00    0.00    0.00    0.00   59.90    2.75    6.51    0.00    0.00    0.00    0.00    0.00    0.02     0.00    0.00    0.00    0.00    0.00
   96    0.00    0.00    0.00    0.00    0.00    0.00   57.33    2.57    6.67    0.00    0.00    0.00    0.00    0.00    0.02     0.00    0.00    0.00    0.00    0.00
   97    0.00    0.00    0.00    0.00    0.00    0.00   54.89    2.44    6.69    0.00    0.00    0.00    0.00    0.00    0.02     0.00    0.00    0.00    0.00    0.00
   98    0.00    0.00    0.00    0.00    0.00    0.00   52.29    2.60    6.52    0.00    0.00    0.00    0.00    0.00    0.02     0.00    0.00    0.00    0.00    0.00
   99    0.00    0.00    0.00    0.00    0.00    0.00   49.90    2.39    4.64    0.00    0.00    0.00    0.00    0.00    0.02     0.00    0.00    0.00    0.00    0.00
  100    0.00    0.00    0.00    0.00    0.00    0.00   47.34    2.56    6.48    0.00    0.00    0.00    0.00    0.00    0.02     0.00    0.00    0.00    0.00    0.00
  101   12.60    5.67    0.00    0.00    0.00    0.00   53.32    0.86    1.96    5.67    0.00    0.00    0.00    0.00    0.02     0.02    0.00    0.00    0.00    2.08
  102   29.00   12.68    0.00    0.00    0.00    0.00   67.75    1.87    3.89   12.68    0.00    0.00    0.00    0.00    0.02     0.07    0.00    0.01    0.00    4.41
  103   44.80   19.84    0.00    0.00    0.00    0.00   90.90    1.78    3.99   19.79    0.00    0.00    0.00    0.00    0.02     0.13    0.00    0.02    0.00    5.49
  104   12.50    5.03    0.00    0.00    0.00    0.00   97.69    0.67    1.63    5.08    0.00    0.00    0.00    0.00    0.02     0.12    0.00    0.02    0.00    1.47
  105    0.00    0.00    0.00    0.00    0.00    0.00   94.55    3.14    6.44    0.00    0.00    0.00    0.00    0.00    0.02     0.10    0.00    0.01    0.00    0.00
  106    0.00    0.00    0.00    0.00    0.00    0.00   90.95    3.60    6.95    0.00    0.00    0.00    0.00    0.00    0.02     0.08    0.00    0.01    0.00    0.00
  107    0.00    0.00    0.00    0.00    0.00    0.00   87.70    3.25    6.63    0.00    0.00    0.00    0.00    0.00    0.02     0.07    0.00    0.01    0.00    0.00
  108    0.00    0.00    0.00    0.00    0.00    0.00   84.26    3.44    6.48    0.00    0.00    0.00    0.00    0.00    0.02     0.06    0.00    0.01    0.00    0.00
  109    0.00    0.00    0.00    0.00    0.00    0.00   80.91    3.35    6.84    0.00    0.00    0.00    0.00    0.00    0.02     0.05    0.00    0.01    0.00    0.00
  110    0.00    0.00    0.00    0.00    0.00    0.00   77.33    3.58    6.37    0.00    0.00    0.00    0.00    0.00    0.02     0.04    0.00    0.00    0.00    0.00
  111    0.00    0.00    0.00    0.00    0.00    0.00   73.82    3.51    6.61    0.00    0.00    0.00    0.00    0.00    0.02     0.03    0.00    0.00    0.00    0.00
  112    0.00    0.00    0.00    0.00    0.00    0.00   69.98    3.84    7.78    0.00    0.00    0.00    0.00    0.00    0.02     0.03    0.00    0.00    0.00    0.00
  113    0.00    0.00    0.00    0.00    0.00    0.00   66.81    3.17    8.29    0.00    0.00    0.00    0.00    0.00    0.02     0.02    0.00    0.00    0.00    0.00
  114    0.00    0.00    0.00    0.00    0.00    0.00   63.39    3.42    7.40    0.00    0.00    0.00    0.00    0.00    0.02     0.02    0.00    0.00    0.00    0.00
  115    0.00    0.00    0.00    0.00    0.00    0.00   59.64    3.75    8.07    0.00    0.00    0.00    0.00    0.00    0.02     0.01    0.00    0.00    0.00    0.00
  116    0.00    0.00    0.00    0.00    0.00    0.00   56.65    2.99    6.13    0.00    0.00    0.00    0.00    0.00    0.02     0.01    0.00    0.00    0.00    0.00
  117    0.00    0.00    0.00    0.00    0.00    0.00   54.44    2.21    5.06    0.00    0.00    0.00    0.00    0.00    0.02     0.01    0.00    0.00    0.00    0.00
  118    0.00    0.00    0.00    0.00    0.00    0.00   50.72    3.72    6.78    0.00    0.00    0.00    0.00    0.00    0.02     0.01    0.00    0.00    0.00    0.00
  119    0.00    0.00    0.00    0.00    0.00    0.00   47.19    3.53    6.59    0.00    0.00    0.00    0.00    0.00    0.02     0.01    0.00    0.00    0.00    0.00
  120    0.00    0.00    0.00    0.00    0.00    0.00   44.03    3.16    7.44    0.00    0.00    0.00    0.00    0.00    0.02     0.01    0.00    0.00    0.00    0.00
    4   98.90   43.22    0.02    0.00    0.00    0.00   44.03   85.23  184.37   43.23    0.00    0.00    0.00    0.00    0.60     0.89    0.01    0.11    0.00   13.45
  121    0.00    0.00    0.00    0.00    0.00    0.00   41.66    2.37    8.98    0.00    0.00    0.00    0.00    0.00    0.02     0.00    0.00    0.00    0.00    0.00
  122    0.00    0.00    0.00    0.00    0.00    0.00   40.28    1.39    5.11    0.00    0.00    0.00    0.00    0.00    0.02     0.00    0.00    0.00    0.00    0.00
  123    0.00    0.00    0.00    0.00    0.00    0.00   39.15    1.12    5.93    0.00    0.00    0.00    0.00    0.00    0.02     0.00    0.00    0.00    0.00    0.00
  124    0.00    0.00    0.00    0.00    0.00    0.00   37.75    1.40    6.39    0.00    0.00    0.00    0.00    0.00    0.02     0.00    0.00    0.00    0.00    0.00
  125    0.00    0.00    0.00    0.00    0.00    0.00   36.56    1.18    6.74    0.00    0.00    0.00    0.00    0.00    0.02     0.00    0.00    0.00    0.00    0.00
  126    0.10    0.03    0.00    0.00    0.00    0.00   36.05    0.57    3.36    0.03    0.00    0.00    0.00    0.00    0.02     0.00    0.00    0.00    0.00    0.00
  127    0.10    0.03    0.00    0.00    0.00    0.00   35.54    0.58    4.32    0.03    0.00    0.00    0.00    0.00    0.02     0.00    0.00    0.00    0.00    0.00
  128    0.00    0.00    0.00    0.00    0.00    0.00   34.68    0.86    6.73    0.00    0.00    0.00    0.00    0.00    0.02     0.00    0.00    0.00    0.00    0.00
  129    0.00    0.00    0.00    0.00    0.00    0.00   33.75    0.93    8.87    0.00    0.00    0.00    0.00    0.00    0.02     0.00    0.00    0.00    0.00    0.00
  130    0.00    0.00    0.00    0.00    0.00    0.00   32.84    0.91    8.09    0.00    0.00    0.00    0.00    0.00    0.02     0.00    0.00    0.00    0.00    0.00
  131    0.00    0.00    0.00    0.00    0.00    0.00   32.19    0.65    5.83    0.00    0.00    0.00    0.00    0.00    0.02     0.00    0.00    0.00    0.00    0.00
  132    0.00    0.00    0.00    0.00    0.00    0.00   31.47    0.73    8.18    0.00    0.00    0.00    0.00    0.00    0.02     0.00    0.00    0.00    0.00    0.00
  133    0.00    0.00    0.00    0.00    0.00    0.00   30.99    0.48    5.57    0.00    0.00    0.00    0.00    0.00    0.02     0.00    0.00    0.00    0.00    0.00
  134    0.00    0.00    0.00    0.00    0.00    0.00   30.43    0.55    6.17    0.00    0.00    0.00    0.00    0.00    0.02     0.00    0.00    0.00    0.00    0.00
  135    0.00    0.00    0.00    0.00    0.00    0.00   30.03    0.41    5.80    0.00    0.00    0.00    0.00    0.00    0.02     0.00    0.00    0.00    0.00    0.00
  136    0.00    0.00    0.00    0.00    0.00    0.00   29.52    0.50    6.57    0.00    0.00    0.00    0.00    0.00    0.02     0.00    0.00    0.00    0.00    0.00
  137    0.00    0.00    0.00    0.00    0.00    0.00   28.99    0.53    8.67    0.00    0.00    0.00    0.00    0.00    0.02     0.00    0.00    0.00    0.00    0.00
  138    0.00    0.00    0.00    0.00    0.00    0.00   28.49    0.51    6.83    0.00    0.00    0.00    0.00    0.00    0.02     0.00    0.00    0.00    0.00    0.00
  139    0.00    0.00    0.00    0.00    0.00    0.00   27.93    0.56   10.20    0.00    0.00    0.00    0.00    0.00    0.02     0.00    0.00    0.00    0.00    0.00
  140    8.50    3.53    0.00    0.00    0.00    0.00   32.83    0.06    0.45    3.53    0.00    0.00    0.00    0.00    0.02     0.00    0.00    0.00    0.00    1.11
  141    0.00    0.00    0.00    0.00    0.00    0.00   32.02    0.81    6.67    0.00    0.00    0.00    0.00    0.00    0.02     0.00    0.00    0.00    0.00    0.00
  142    2.40    0.68    0.00    0.00    0.00    0.00   32.52    1.21    3.28    0.68    0.00    0.00    0.00    0.00    0.02     0.00    0.00    0.00    0.00    0.00
  143    0.00    0.00    0.00    0.00    0.00    0.00   31.62    0.90    6.78    0.00    0.00    0.00    0.00    0.00    0.02     0.00    0.00    0.00    0.00    0.00
  144    0.00    0.00    0.00    0.00    0.00    0.00   31.14    0.47    4.97    0.00    0.00    0.00    0.00    0.00    0.02     0.00    0.00    0.00    0.00    0.00
  145    0.00    0.00    0.00    0.00    0.00    0.00   30.48    0.66    7.87    0.00    0.00    0.00    0.00    0.00    0.02     0.00    0.00    0.00    0.00    0.00
  146    0.20    0.06    0.00    0.00    0.00    0.00   30.53    0.10    1.32    0.06    0.00    0.00    0.00    0.00    0.02     0.00    0.00    0.00    0.00    0.00
  147    0.00    0.00    0.00    0.00    0.00    0.00   30.01    0.52    5.33    0.00    0.00    0.00    0.00    0.00    0.02     0.00    0.00    0.00    0.00    0.00
  148    1.70    0.48    0.00    0.00    0.00    0.00   30.43    0.33    3.19    0.49    0.00    0.00    0.00    0.00    0.02     0.00    0.00    0.00    0.00    0.00
  149    1.10    0.31    0.00    0.00    0.00    0.00   30.20    1.02    2.73    0.31    0.00    0.00    0.00    0.00    0.02     0.00    0.00    0.00    0.00    0.00
  150    0.00    0.00    0.00    0.00    0.00    0.00   29.50    0.70    6.31    0.00    0.00    0.00    0.00    0.00    0.00     0.00    0.00    0.00    0.00    0.00
  151    0.00    0.00    0.00    0.00    0.00    0.00   28.95    0.55    7.95    0.00    0.00    0.00    0.00    0.00    0.00     0.00    0.00    0.00    0.00    0.00
    5   14.10    5.13    0.02    0.00    0.00    0.00   28.95   23.57  185.17    5.15    0.00    0.00    0.00    0.00    0.50     0.04    0.00    0.00    0.00    1.11
  152    0.00    0.00    0.00    0.00    0.00    0.00   28.43    0.52    7.42    0.00    0.00    0.00    0.00    0.00    0.00     0.00    0.00    0.00    0.00    0.00
  153    0.00    0.00    0.00    0.00    0.00    0.00   27.96    0.47    7.91    0.00    0.00    0.00    0.00    0.00    0.00     0.00    0.00    0.00    0.00    0.00
  154   36.30   21.27    0.00    0.00    0.00    0.00   42.20    0.77    2.83   21.21    0.00    0.00    0.00    0.00    0.00     0.01    0.00    0.00    0.00    5.14
  155    9.10    3.49    0.00    0.00    0.00    0.00   47.29    0.51    1.35    3.56    0.00    0.00    0.00    0.00    0.00     0.01    0.00    0.00    0.00    0.90
  156    0.40    0.11    0.00    0.00    0.00    0.00   45.06    2.52    4.02    0.11    0.00    0.00    0.00    0.00    0.00     0.01    0.00    0.00    0.00    0.00
  157    0.00    0.00    0.00    0.00    0.00    0.00   42.14    2.92    8.15    0.00    0.00    0.00    0.00    0.00    0.00     0.01    0.00    0.00    0.00    0.00
  158    0.00    0.00    0.00    0.00    0.00    0.00   39.99    2.15    8.48    0.00    0.00    0.00    0.00    0.00    0.00     0.01    0.00    0.00    0.00    0.00
  159    0.00    0.00    0.00    0.00    0.00    0.00   38.53    1.46    7.48    0.00    0.00    0.00    0.00    0.00    0.00     0.01    0.00    0.00    0.00    0.00
  160    0.00    0.00    0.00    0.00    0.00    0.00   36.91    1.62   10.90    0.00    0.00    0.00    0.00    0.00    0.00     0.00    0.00    0.00    0.00    0.00
  161    0.00    0.00    0.00    0.00    0.00    0.00   35.69    1.22    8.37    0.00    0.00    0.00    0.00    0.00    0.00     0.00    0.00    0.00    0.00    0.00
  162    0.00    0.00    0.00    0.00    0.00    0.00   34.53    1.16    8.80    0.00    0.00    0.00    0.00    0.00    0.00     0.00    0.00    0.00    0.00    0.00
  163    0.00    0.00    0.00    0.00    0.00    0.00   33.59    0.94    7.32    0.00    0.00    0.00    0.00    0.00    0.00     0.00    0.00    0.00    0.00    0.00
  164    0.00    0.00    0.00    0.00    0.00    0.00   32.79    0.80    7.26    0.00    0.00    0.00    0.00    0.00    0.00     0.00    0.00    0.00    0.00    0.00
  165    0.00    0.00    0.00    0.00    0.00    0.00   32.07    0.73    6.46    0.00    0.00    0.00    0.00    0.00    0.00     0.00    0.00    0.00    0.00    0.00
  166    0.00    0.00    0.00    0.00    0.00    0.00   31.35    0.71    7.77    0.00    0.00    0.00    0.00    0.00    0.00     0.00    0.00    0.00    0.00    0.00
  167    0.00    0.00    0.00    0.00    0.00    0.00   31.35    0.00    7.02    0.00    0.00    0.00    0.00    0.00    0.00     0.00    0.00    0.00    0.00    0.00
  168    0.00    0.00    0.00    0.00    0.00    0.00   31.35    0.00    8.87    0.00    0.00    0.00    0.00    0.00    0.00     0.00    0.00    0.00    0.00    0.00
  169    0.00    0.00    0.00    0.00    0.00    0.00   31.35    0.00    9.27    0.00    0.00    0.00    0.00    0.00    0.00     0.00    0.00    0.00    0.00    0.00
  170    0.00    0.00    0.00    0.00    0.00    0.00   31.35    0.00    5.88    0.00    0.00    0.00    0.00    0.00    0.00     0.00    0.00    0.00    0.00    0.00
  171    4.40    1.25    0.00    0.00    0.00    0.00   31.95    0.80    1.62    1.25    0.00    0.00    0.00    0.00    0.00     0.02    0.00    0.00    0.00    0.00
  172    1.30    0.37    0.00    0.00    0.00    0.00   31.84    1.04    2.69    0.37    0.00    0.00    0.00    0.00    0.00     0.02    0.00    0.00    0.00    0.00
  173    0.20    0.06    0.00    0.00    0.00    0.00   31.98    0.00    3.03    0.06    0.00    0.00    0.00    0.00    0.00     0.02    0.00    0.00    0.00    0.00
  174    2.60    1.13    0.00    0.00    0.00    0.00   32.94    0.51    1.04    1.13    0.00    0.00    0.00    0.00    0.00     0.03    0.00    0.00    0.00    0.39
  175    0.00    0.00    0.00    0.00    0.00    0.00   32.94    0.00    7.05    0.00    0.00    0.00    0.00    0.00    0.00     0.03    0.00    0.00    0.00    0.00
  176    0.00    0.00    0.00    0.00    0.00    0.00   32.94    0.00    9.43    0.00    0.00    0.00    0.00    0.00    0.00     0.02    0.00    0.00    0.00    0.00
  177    1.70    0.48    0.00    0.00    0.00    0.00   32.94    0.00    0.91    0.49    0.00    0.00    0.00    0.00    0.00     0.02    0.00    0.00    0.00    0.00
  178    0.00    0.00    0.00    0.00    0.00    0.00   32.94    0.00    8.85    0.00    0.00    0.00    0.00    0.00    0.00     0.02    0.00    0.00    0.00    0.00
  179    0.00    0.00    0.00    0.00    0.00    0.00   32.94    0.00    7.28    0.00    0.00    0.00    0.00    0.00    0.00     0.02    0.00    0.00    0.00    0.00
  180    1.10    0.31    0.00    0.00    0.00    0.00   32.94    0.00    0.54    0.31    0.00    0.00    0.00    0.00    0.00     0.02    0.00    0.00    0.00    0.00
  181    0.30    0.09    0.00    0.00    0.00    0.00   33.14    0.00    2.23    0.09    0.00    0.00    0.00    0.00    0.00     0.02    0.00    0.00    0.00    0.00
    6   57.40   28.57    0.02    0.00    0.00    0.00   33.14   20.84  180.22   28.60    0.00    0.00    0.00    0.00    0.00     0.31    0.01    0.04    0.00    6.43
  182   13.10    4.54    0.00    0.00    0.00    0.00   41.39    0.30    0.61    4.54    0.00    0.00    0.00    0.00    0.00     0.10    0.00    0.01    0.00    0.81
  183    2.00    0.57    0.00    0.00    0.00    0.00   41.50    0.00    1.00    0.57    0.00    0.00    0.00    0.00    0.00     0.09    0.00    0.01    0.00    0.00
  184    1.40    0.40    0.00    0.00    0.00    0.00   42.15    0.31    0.63    0.40    0.00    0.00    0.00    0.00    0.00     0.08    0.00    0.01    0.00    0.00
  185    0.70    0.20    0.00    0.00    0.00    0.00   42.65    0.00    1.89    0.20    0.00    0.00    0.00    0.00    0.00     0.07    0.00    0.01    0.00    0.00
  186    0.00    0.00    0.00    0.00    0.00    0.00   42.65    0.00    8.47    0.00    0.00    0.00    0.00    0.00    0.00     0.06    0.00    0.01    0.00    0.00
  187    0.00    0.00    0.00    0.00    0.00    0.00   42.65    0.00    9.50    0.00    0.00    0.00    0.00    0.00    0.00     0.05    0.00    0.01    0.00    0.00
  188    0.00    0.00    0.00    0.00    0.00    0.00   42.65    0.00    8.80    0.00    0.00    0.00    0.00    0.00    0.00     0.04    0.00    0.00    0.00    0.00
  189    0.00    0.00    0.00    0.00    0.00    0.00   42.65    0.00    7.76    0.00    0.00    0.00    0.00    0.00    0.00     0.03    0.00    0.00    0.00    0.00
  190    1.20    0.34    0.00    0.00    0.00    0.00   42.47    1.04    3.92    0.34    0.00    0.00    0.00    0.00    0.00     0.03    0.00    0.00    0.00    0.00
  191    0.40    0.11    0.00    0.00    0.00    0.00   42.76    0.00    2.13    0.11    0.00    0.00    0.00    0.00    0.00     0.03    0.00    0.00    0.00    0.00
  192    0.00    0.00    0.00    0.00    0.00    0.00   42.76    0.00    9.40    0.00    0.00    0.00    0.00    0.00    0.00     0.02    0.00    0.00    0.00    0.00
  193    2.00    0.57    0.00    0.00    0.00    0.00   44.14    0.00    1.09    0.57    0.00    0.00    0.00    0.00    0.00     0.03    0.00    0.00    0.00    0.00
  194   12.30    3.78    0.00    0.00    0.00    0.00   48.03    0.00    0.99    3.78    0.00    0.00    0.00    0.00    0.00     0.10    0.00    0.01    0.00    0.27
  195   21.20    7.83    0.00    0.00    0.00    0.00   61.01    0.36    0.73    7.83    0.00    0.00    0.00    0.00    0.00     0.25    0.00    0.03    0.00    1.79
  196    8.40    3.14    0.00    0.00    0.00    0.00   65.22    1.04    2.10    3.14    0.00    0.00    0.00    0.00    0.00     0.27    0.00    0.03    0.00    0.75
  197   16.70    6.47    0.00    0.00    0.00    0.00   70.93    1.04    2.70    6.47    0.00    0.00    0.00    0.00    0.00     0.36    0.00    0.04    0.00    1.71
  198   15.50    6.59    0.00    0.00    0.00    0.00   78.94    0.89    1.80    6.59    0.00    0.00    0.00    0.00    0.00     0.43    0.00    0.05    0.00    2.17
  199    0.00    0.00    0.00    0.00    0.00    0.00   78.94    0.00    8.10    0.00    0.00    0.00    0.00    0.00    0.00     0.36    0.00    0.04    0.00    0.00
  200    0.00    0.00    0.00    0.00    0.00    0.00   78.94    0.00    6.29    0.00    0.00    0.00    0.00    0.00    0.00     0.29    0.00    0.04    0.00    0.00
  201    0.00    0.00    0.00    0.00    0.00    0.00   78.94    0.00    6.64    0.00    0.00    0.00    0.00    0.00    0.00     0.24    0.00    0.03    0.00    0.00
  202    0.00    0.00    0.00    0.00    0.00    0.00   78.94    0.00    5.79    0.00    0.00    0.00    0.00    0.00    0.00     0.20    0.00    0.02    0.00    0.00
  203    0.00    0.00    0.00    0.00    0.00    0.00   78.94    0.00    4.60    0.00    0.00    0.00    0.00    0.00    0.00     0.16    0.00    0.02    0.00    0.00
  204    0.00    0.00    0.00    0.00    0.00    0.00   78.94    0.00    8.69    0.00    0.00    0.00    0.00    0.00    0.00     0.14    0.00    0.02    0.00    0.00
  205    0.00    0.00    0.00    0.00    0.00    0.00   78.94    0.00    6.99    0.00    0.00    0.00    0.00    0.00    0.00     0.11    0.00    0.01    0.00    0.00
  206   26.90   17.91    0.00    0.00    0.00    0.00   86.99    0.93    1.88   17.90    0.01    0.00    0.00    0.00    0.00     0.53    0.00    0.07    0.00    4.31
  207    0.00    0.00    0.00    0.00    0.00    0.00   86.99    0.00    5.85    0.00    0.00    0.00    0.00    0.00    0.00     0.44    0.00    0.05    0.00    0.00
  208    0.00    0.00    0.00    0.00    0.00    0.00   86.99    0.00    6.75    0.00    0.00    0.00    0.00    0.00    0.00     0.36    0.00    0.04    0.00    0.00
  209    0.90    0.26    0.00    0.00    0.00    0.00   86.99    0.00    2.28    0.26    0.00    0.00    0.00    0.00    0.00     0.30    0.00    0.04    0.00    0.00
  210   47.20   22.69    0.00    0.00    0.00    0.00  111.47    0.00    2.49   22.69    0.00    0.00    0.00    0.00    0.00     0.82    0.00    0.10    0.00    6.70
  211    0.00    0.00    0.00    0.00    0.00    0.00  111.47    0.00   10.99    0.00    0.00    0.00    0.00    0.00    0.00     0.68    0.00    0.08    0.00    0.00
  212    6.30    2.15    0.00    0.00    0.00    0.00  115.61    0.00    1.68    2.15    0.00    0.00    0.00    0.00    0.00     0.60    0.00    0.07    0.00    0.36
    7  176.20   77.55    0.04    0.00    0.00    0.00  115.61    5.92  142.56   77.59    0.01    0.00    0.00    0.00    0.00     7.24    0.01    0.90    0.00   18.87
  213    2.70    0.77    0.00    0.00    0.00    0.00  116.50    1.04    3.03    0.77    0.00    0.00    0.00    0.00    0.00     0.51    0.00    0.06    0.00    0.00
  214    0.00    0.00    0.00    0.00    0.00    0.00  116.50    0.00    8.91    0.00    0.00    0.00    0.00    0.00    0.00     0.42    0.00    0.05    0.00    0.00
  215    0.00    0.00    0.00    0.00    0.00    0.00  116.50    0.00    8.92    0.00    0.00    0.00    0.00    0.00    0.00     0.34    0.00    0.04    0.00    0.00
  216    0.00    0.00    0.00    0.00    0.00    0.00  116.50    0.00    6.72    0.00    0.00    0.00    0.00    0.00    0.00     0.28    0.00    0.04    0.00    0.00
  217    1.20    0.34    0.00    0.00    0.00    0.00  117.36    0.00    5.19    0.34    0.00    0.00    0.00    0.00    0.00     0.24    0.00    0.03    0.00    0.00
  218    0.00    0.00    0.00    0.00    0.00    0.00  117.36    0.00    7.24    0.00    0.00    0.00    0.00    0.00    0.00     0.20    0.00    0.02    0.00    0.00
  219    0.00    0.00    0.00    0.00    0.00    0.00  117.36    0.00    7.46    0.00    0.00    0.00    0.00    0.00    0.00     0.16    0.00    0.02    0.00    0.00
  220    0.80    0.23    0.00    0.00    0.00    0.00  116.88    1.04    3.07    0.23    0.00    0.00    0.00    0.00    0.00     0.14    0.00    0.02    0.00    0.00
  221    1.00    0.28    0.00    0.00    0.00    0.00  117.59    0.00    3.07    0.29    0.00    0.00    0.00    0.00    0.00     0.12    0.00    0.01    0.00    0.00
  222    8.60    7.11    0.00    0.00    0.00    0.00  118.04    1.04    3.02    6.97    0.00    0.00    0.00    0.00    0.00     0.27    0.00    0.03    0.00    2.04
  223    1.00    0.28    0.00    0.00    0.00    0.00  118.76    0.00    3.44    0.43    0.00    0.00    0.00    0.00    0.00     0.23    0.00    0.03    0.00    0.00
  224    0.10    0.03    0.00    0.00    0.00    0.00  118.83    0.00    2.34    0.03    0.00    0.00    0.00    0.00    0.00     0.19    0.00    0.02    0.00    0.00
  225    0.00    0.00    0.00    0.00    0.00    0.00  118.83    0.00    5.94    0.00    0.00    0.00    0.00    0.00    0.00     0.15    0.00    0.02    0.00    0.00
  226    0.00    0.00    0.00    0.00    0.00    0.00  118.83    0.00    9.15    0.00    0.00    0.00    0.00    0.00    0.00     0.13    0.00    0.02    0.00    0.00
  227    0.00    0.00    0.00    0.00    0.00    0.00  118.83    0.00   10.09    0.00    0.00    0.00    0.00    0.00    0.00     0.10    0.00    0.01    0.00    0.00
  228    0.00    0.00    0.00    0.00    0.00    0.00  118.83    0.00    9.79    0.00    0.00    0.00    0.00    0.00    0.00     0.09    0.00    0.01    0.00    0.00
  229    3.80    2.03    0.00    0.00    0.00    0.00  118.83    0.00    1.75    2.03    0.00    0.00    0.00    0.00    0.00     0.12    0.00    0.01    0.00    0.94
  230    1.10    0.31    0.00    0.00    0.00    0.00  119.61    0.00    2.82    0.31    0.00    0.00    0.00    0.00    0.00     0.10    0.00    0.01    0.00    0.00
  231    0.20    0.06    0.00    0.00    0.00    0.00  118.72    1.04    2.94    0.06    0.00    0.00    0.00    0.00    0.00     0.08    0.00    0.01    0.00    0.00
  232    0.00    0.00    0.00    0.00    0.00    0.00  118.72    0.00    5.01    0.00    0.00    0.00    0.00    0.00    0.00     0.07    0.00    0.01    0.00    0.00
  233    0.20    0.06    0.00    0.00    0.00    0.00  118.86    0.00    2.78    0.06    0.00    0.00    0.00    0.00    0.00     0.06    0.00    0.01    0.00    0.00
  234    0.00    0.00    0.00    0.00    0.00    0.00  118.86    0.00   10.28    0.00    0.00    0.00    0.00    0.00    0.00     0.05    0.00    0.01    0.00    0.00
  235    9.10    4.41    0.00    0.00    0.00    0.00  119.41    1.04    2.85    3.76    0.00    0.00    0.00    0.00    0.00     0.14    0.00    0.02    0.00    0.09
  236    0.40    0.11    0.00    0.00    0.00    0.00  119.69    0.00    1.98    0.77    0.00    0.00    0.00    0.00    0.00     0.12    0.00    0.01    0.00    0.00
  237    0.70    0.20    0.00    0.00    0.00    0.00  120.19    0.00    2.05    0.20    0.00    0.00    0.00    0.00    0.00     0.10    0.00    0.01    0.00    0.00
  238    6.40    2.03    0.00    0.00    0.00    0.00  123.48    1.04    3.06    2.03    0.00    0.00    0.00    0.00    0.00     0.13    0.00    0.02    0.00    0.21
  239   24.30   10.47    0.00    0.00    0.00    0.00  136.25    1.04    3.34   10.47    0.00    0.00    0.00    0.00    0.00     0.39    0.00    0.05    0.00    3.55
  240    0.00    0.00    0.00    0.00    0.00    0.00  136.25    0.00    6.41    0.00    0.00    0.00    0.00    0.00    0.00     0.32    0.00    0.04    0.00    0.00
  241    0.00    0.00    0.00    0.00    0.00    0.00  136.25    0.00    6.96    0.00    0.00    0.00    0.00    0.00    0.00     0.26    0.00    0.03    0.00    0.00
  242    0.00    0.00    0.00    0.00    0.00    0.00  136.25    0.00   11.99    0.00    0.00    0.00    0.00    0.00    0.00     0.22    0.00    0.03    0.00    0.00
  243    0.00    0.00    0.00    0.00    0.00    0.00  136.25    0.00    8.24    0.00    0.00    0.00    0.00    0.00    0.00     0.18    0.00    0.02    0.00    0.00
    8   61.60   28.73    0.05    0.00    0.00    0.00  136.25    7.28  169.83   28.78    0.01    0.00    0.00    0.00    0.00     5.90    0.01    0.73    0.00    6.83
  244    0.00    0.00    0.00    0.00    0.00    0.00  136.25    0.00    7.73    0.00    0.00    0.00    0.00    0.00    0.00     0.15    0.00    0.02    0.00    0.00
  245    0.00    0.00    0.00    0.00    0.00    0.00  136.25    0.00    6.34    0.00    0.00    0.00    0.00    0.00    0.00     0.12    0.00    0.02    0.00    0.00
  246    0.00    0.00    0.00    0.00    0.00    0.00  136.25    0.00    5.84    0.00    0.00    0.00    0.00    0.00    0.00     0.10    0.00    0.01    0.00    0.00
  247   12.80    5.36    0.00    0.00    0.00    0.00  139.71    0.00    0.91    5.36    0.00    0.00    0.00    0.00    0.00     0.22    0.00    0.03    0.00    1.71
  248    3.30    1.19    0.00    0.00    0.00    0.00  141.81    0.00    2.34    1.20    0.00    0.00    0.00    0.00    0.00     0.21    0.00    0.03    0.00    0.25
  249    0.00    0.00    0.00    0.00    0.00    0.00  141.81    0.00    5.92    0.00    0.00    0.00    0.00    0.00    0.00     0.17    0.00    0.02    0.00    0.00
  250    0.30    0.09    0.00    0.00    0.00    0.00  140.99    1.04    3.79    0.09    0.00    0.00    0.00    0.00    0.00     0.14    0.00    0.02    0.00    0.00
  251    0.00    0.00    0.00    0.00    0.00    0.00  140.99    0.00    6.40    0.00    0.00    0.00    0.00    0.00    0.00     0.12    0.00    0.01    0.00    0.00
  252    0.00    0.00    0.00    0.00    0.00    0.00  140.99    0.00    7.23    0.00    0.00    0.00    0.00    0.00    0.00     0.10    0.00    0.01    0.00    0.00
  253    0.50    0.14    0.00    0.00    0.00    0.00  141.33    0.00    3.59    0.14    0.00    0.00    0.00    0.00    0.00     0.08    0.00    0.01    0.00    0.00
  254   93.00   68.18    0.00    0.00    0.00    0.00  165.08    1.04    3.27   68.17    0.07    0.00    0.00    0.00    0.00     2.37    0.00    0.29    0.00   13.83
  255    0.10    0.03    0.00    0.00    0.00    0.00  165.15    0.00    2.61    0.04    0.00    0.00    0.00    0.00    0.00     1.95    0.00    0.24    0.00    0.00
  256    2.10    0.98    0.00    0.00    0.00    0.00  166.27    0.00    1.84    0.99    0.00    0.00    0.00    0.00    0.00     1.63    0.00    0.20    0.00    0.38
  257    0.00    0.00    0.00    0.00    0.00    0.00  166.27    0.00    5.10    0.00    0.00    0.00    0.00    0.00    0.00     1.34    0.00    0.17    0.00    0.00
  258    1.50    0.43    0.00    0.00    0.00    0.00  166.33    1.01    2.04    0.43    0.00    0.00    0.00    0.00    0.00     1.11    0.00    0.14    0.00    0.00
  259    0.00    0.00    0.00    0.00    0.00    0.00  166.33    0.00    6.75    0.00    0.00    0.00    0.00    0.00    0.00     0.92    0.00    0.11    0.00    0.00
  260    0.00    0.00    0.00    0.00    0.00    0.00  166.33    0.00    7.42    0.00    0.00    0.00    0.00    0.00    0.00     0.75    0.00    0.09    0.00    0.00
  261    0.80    0.23    0.00    0.00    0.00    0.00  166.90    0.00    0.95    0.23    0.00    0.00    0.00    0.00    0.00     0.63    0.00    0.08    0.00    0.00
  262    0.00    0.00    0.00    0.00    0.00    0.00  166.90    0.00    6.10    0.00    0.00    0.00    0.00    0.00    0.00     0.52    0.00    0.06    0.00    0.00
  263    6.10    1.98    0.00    0.00    0.00    0.00  171.02    0.00    2.31    1.98    0.00    0.00    0.00    0.00    0.00     0.47    0.00    0.06    0.00    0.24
  264    0.00    0.00    0.00    0.00    0.00    0.00  171.02    0.00    6.38    0.00    0.00    0.00    0.00    0.00    0.00     0.39    0.00    0.05    0.00    0.00
  265    0.00    0.00    0.00    0.00    0.00    0.00  171.02    0.00    6.89    0.00    0.00    0.00    0.00    0.00    0.00     0.32    0.00    0.04    0.00    0.00
  266    0.00    0.00    0.00    0.00    0.00    0.00  171.02    0.00    6.07    0.00    0.00    0.00    0.00    0.00    0.00     0.26    0.00    0.03    0.00    0.00
  267    0.00    0.00    0.00    0.00    0.00    0.00  171.02    0.00    6.92    0.00    0.00    0.00    0.00    0.00    0.00     0.22    0.00    0.03    0.00    0.00
  268    2.30    0.66    0.00    0.00    0.00    0.00  171.62    1.04    2.87    0.66    0.00    0.00    0.00    0.00    0.00     0.19    0.00    0.02    0.00    0.00
  269    2.50    0.71    0.00    0.00    0.00    0.00  172.36    1.04    2.42    0.71    0.00    0.00    0.00    0.00    0.00     0.17    0.00    0.02    0.00    0.00
  270    6.70    1.91    0.00    0.00    0.00    0.00  176.11    1.04    4.39    1.91    0.00    0.00    0.00    0.00    0.00     0.18    0.00    0.02    0.00    0.00
  271    0.30    0.09    0.00    0.00    0.00    0.00  176.32    0.00    3.75    0.09    0.00    0.00    0.00    0.00    0.00     0.15    0.00    0.02    0.00    0.00
  272   12.40    8.43    0.00    0.00    0.00    0.00  180.29    0.00    3.44    7.67    0.00    0.00    0.00    0.00    0.00     0.34    0.00    0.04    0.00    1.92
  273    4.60    1.31    0.00    0.00    0.00    0.00  183.57    0.00    2.19    2.08    0.00    0.00    0.00    0.00    0.00     0.31    0.00    0.04    0.00    0.00
    9  149.30   91.71    0.05    0.00    0.00    0.00  183.57    6.21  133.78   91.76    0.07    0.00    0.00    0.00    0.00    15.63    0.02    1.93    0.00   18.34
  274    0.00    0.00    0.00    0.00    0.00    0.00  183.57    0.00    7.54    0.00    0.00    0.00    0.00    0.00    0.00     0.26    0.00    0.03    0.00    0.00
  275    8.80    3.62    0.00    0.00    0.00    0.00  187.70    1.04    2.53    3.62    0.00    0.00    0.00    0.00    0.00     0.30    0.00    0.04    0.00    0.85
  276    0.80    0.23    0.00    0.00    0.00    0.00  188.28    0.00    2.30    0.23    0.00    0.00    0.00    0.00    0.00     0.25    0.00    0.03    0.00    0.00
  277   31.80   14.09    0.00    0.00    7.63    0.00  196.56    1.75    1.76   13.96    0.00    0.00    0.00    0.00    0.00     0.59    0.00    0.07    0.00    4.22
  278  129.20  115.48    0.00    0.00    8.26    0.00  195.88    2.70    3.18   89.56    0.06    0.00    0.00    0.00    0.00     3.81    0.00    0.47    0.00   17.18
  279   44.30   32.48    0.00    0.00    8.84    0.00  196.25    2.59    2.96   58.52    0.18    0.00    0.00    0.00    0.00     4.04    0.00    0.50    0.00    5.27
  280   11.40    7.86    0.00    0.00    3.33    0.00  194.90    1.55    1.55    7.86    0.01    0.00    0.00    0.00    0.00     3.46    0.00    0.43    0.00    0.89
  281    3.90    1.25    0.00    0.00    1.78    0.00  194.40    1.37    1.37    1.26    0.00    0.00    0.00    0.00    0.00     2.87    0.00    0.35    0.00    0.13
  282    0.00    0.00    0.00    0.00    0.06    0.00  191.01    3.33    6.38    0.01    0.00    0.00    0.00    0.00    0.00     2.36    0.00    0.29    0.00    0.00
  283    0.00    0.00    0.00    0.00    0.00    0.00  191.01    0.00    6.89    0.01    0.00    0.00    0.00    0.00    0.00     1.95    0.00    0.24    0.00    0.00
  284    0.00    0.00    0.00    0.00    0.00    0.00  191.01    0.00    5.88    0.01    0.00    0.00    0.00    0.00    0.00     1.60    0.00    0.20    0.00    0.00
  285    0.00    0.00    0.00    0.00    0.00    0.00  191.01    0.00    6.91    0.01    0.00    0.00    0.00    0.00    0.00     1.32    0.00    0.16    0.00    0.00
  286    1.50    0.43    0.00    0.00    0.00    0.00  191.25    0.84    1.68    0.43    0.00    0.00    0.00    0.00    0.00     1.09    0.00    0.14    0.00    0.00
  287   21.40   13.30    0.00    0.00    0.21    0.00  194.01    1.08    2.07   11.65    0.00    0.00    0.00    0.00    0.00     1.13    0.00    0.14    0.00    2.74
  288   44.60   16.47    0.00    0.00   16.40    0.00  200.28    1.83    1.84   18.13    0.01    0.00    0.00    0.00    0.00     1.25    0.00    0.15    0.00    3.57
  289   29.80   15.51    0.00    0.00   13.62    0.00  198.65    2.26    2.34   15.52    0.01    0.00    0.00    0.00    0.00     1.30    0.00    0.16    0.00    3.90
  290    0.00    0.00    0.00    0.00    3.26    0.00  192.68    2.69    5.15    0.01    0.00    0.00    0.00    0.00    0.00     1.07    0.00    0.13    0.00    0.00
  291    0.00    0.00    0.00    0.00    0.00    0.00  192.68    0.00    6.06    0.01    0.00    0.00    0.00    0.00    0.00     0.89    0.00    0.11    0.00    0.00
  292    0.00    0.00    0.00    0.00    0.00    0.00  192.68    0.00    7.07    0.01    0.00    0.00    0.00    0.00    0.00     0.73    0.00    0.09    0.00    0.00
  293    0.00    0.00    0.00    0.00    0.00    0.00  192.68    0.00    8.43    0.01    0.00    0.00    0.00    0.00    0.00     0.60    0.00    0.07    0.00    0.00
  294    0.40    0.11    0.00    0.00    0.00    0.00  192.97    0.00    1.90    0.13    0.00    0.00    0.00    0.00    0.00     0.50    0.00    0.06    0.00    0.00
  295    0.00    0.00    0.00    0.00    0.00    0.00  192.97    0.00    8.78    0.01    0.00    0.00    0.00    0.00    0.00     0.41    0.00    0.05    0.00    0.00
  296   35.80   22.76    0.00    0.00    7.66    0.00  195.07    3.25    4.23   22.72    0.02    0.00    0.00    0.00    0.00     0.75    0.00    0.09    0.00    3.62
  297   15.60    7.45    0.00    0.00    2.67    0.00  194.64    1.52    2.90    7.08    0.00    0.00    0.00    0.00    0.00     0.73    0.00    0.09    0.00    1.81
  298   37.60   28.63    0.01    0.00    5.99    0.00  194.90    2.70    3.17   29.08    0.04    0.00    0.00    0.00    0.00     1.11    0.00    0.14    0.00    5.37
  299   14.40    6.04    0.01    0.00    5.75    0.00  196.10    1.39    2.66    6.06    0.00    0.00    0.00    0.00    0.00     1.00    0.00    0.12    0.00    1.63
  300    0.00    0.00    0.01    0.00    0.77    0.00  192.22    3.12    5.96    0.02    0.00    0.00    0.00    0.00    0.00     0.82    0.00    0.10    0.00    0.00
  301    0.00    0.00    0.01    0.00    0.00    0.00  192.22    0.00    7.73    0.02    0.00    0.00    0.00    0.00    0.00     0.68    0.00    0.08    0.00    0.00
  302    0.00    0.00    0.01    0.00    0.00    0.00  192.22    0.00    6.77    0.02    0.00    0.00    0.00    0.00    0.00     0.56    0.00    0.07    0.00    0.00
  303    0.00    0.00    0.00    0.00    0.00    0.00  192.22    0.00    6.34    0.02    0.00    0.00    0.00    0.00    0.00     0.46    0.00    0.06    0.00    0.00
  304    0.00    0.00    0.00    0.07    0.00    0.00  192.22    0.00    6.64    0.09    0.00    0.00    0.00    0.00    0.00     0.38    0.00    0.05    0.00    0.00
   10  431.30  285.69    0.12    0.07   86.23    0.00  192.22   35.00  140.96  286.08    0.32    0.00    0.00    0.01    0.00    38.28    0.04    4.73    0.00   51.17
  305    0.00    0.00    0.00    0.14    0.00    0.00  192.22    0.00    6.94    0.16    0.00    0.00    0.00    0.00    0.00     0.31    0.00    0.04    0.00    0.00
  306    5.00    1.42    0.00    0.20    0.55    0.00  193.58    1.66    1.66    1.65    0.00    0.00    0.00    0.00    0.00     0.28    0.00    0.03    0.00    0.00
  307    3.10    0.88    0.00    0.26    0.55    0.00  192.68    2.56    2.90    1.17    0.00    0.00    0.00    0.00    0.00     0.24    0.00    0.03    0.00    0.00
  308    3.20    0.91    0.00    0.32    0.00    0.00  193.93    1.04    2.31    1.25    0.00    0.00    0.00    0.00    0.00     0.21    0.00    0.03    0.00    0.00
  309    1.50    0.43    0.00    0.37    0.00    0.00  193.95    1.04    2.19    0.82    0.00    0.00    0.00    0.00    0.00     0.18    0.00    0.02    0.00    0.00
  310   17.70    7.33    0.00    0.42    4.98    0.00  194.47    2.69    3.15    7.78    0.00    0.00    0.00    0.00    0.00     0.25    0.00    0.03    0.00    1.65
  311    0.90    0.26    0.00    0.47    0.36    0.00  193.95    0.81    1.55    0.75    0.00    0.00    0.00    0.00    0.00     0.21    0.00    0.03    0.00    0.00
  312   17.10    6.79    0.01    0.51    3.98    0.00  195.24    1.48    2.83    7.07    0.00    0.00    0.00    0.00    0.00     0.27    0.00    0.03    0.00    1.34
  313    4.30    1.31    0.01    0.56    2.25    0.00  194.60    1.38    2.63    2.17    0.00    0.00    0.00    0.00    0.00     0.24    0.00    0.03    0.00    0.09
  314    0.00    0.00    0.01    0.61    0.00    0.00  194.60    0.00    7.07    0.63    0.00    0.00    0.00    0.00    0.00     0.20    0.00    0.02    0.00    0.00
  315    0.00    0.00    0.00    0.64    0.00    0.00  194.60    0.00    6.09    0.67    0.00    0.00    0.00    0.00    0.00     0.16    0.00    0.02    0.00    0.00
  316    0.00    0.00    0.00    0.68    0.00    0.00  194.60    0.00    6.70    0.71    0.00    0.00    0.00    0.00    0.00     0.13    0.00    0.02    0.00    0.00
  317    0.00    0.00    0.00    0.71    0.00    0.00  194.60    0.00    5.88    0.74    0.00    0.00    0.00    0.00    0.00     0.11    0.00    0.01    0.00    0.00
  318    0.00    0.00    0.00    0.74    0.00    0.00  194.60    0.00    5.63    0.77    0.00    0.00    0.00    0.00    0.00     0.09    0.00    0.01    0.00    0.00
  319  108.40  100.77    0.00    0.77    1.89    0.00  193.61    2.21    2.24   91.34    0.12    0.00    0.00    0.00    0.00     1.87    0.00    0.23    0.00   16.01
  320    2.90    1.08    0.00    0.79    0.30    0.00  192.91    2.22    2.25   12.12    0.09    0.00    0.00    0.00    0.00     1.57    0.00    0.19    0.00    0.25
  321    0.00    0.00    0.00    0.81    0.00    0.00  192.91    0.00    7.07    0.84    0.00    0.00    0.00    0.00    0.00     1.29    0.00    0.16    0.00    0.00
  322   15.30   10.47    0.00    0.83    1.91    0.00  194.35    1.48    1.48   11.31    0.01    0.00    0.00    0.00    0.00     1.18    0.00    0.15    0.00    1.51
  323    0.00    0.00    0.00    0.85    0.06    0.00  190.83    3.46    6.61    0.90    0.00    0.00    0.00    0.00    0.00     0.97    0.00    0.12    0.00    0.00
  324    0.00    0.00    0.00    0.87    0.00    0.00  190.83    0.00    5.80    0.90    0.00    0.00    0.00    0.00    0.00     0.80    0.00    0.10    0.00    0.00
  325   41.00   27.93    0.00    0.89    6.19    0.00  195.37    2.32    2.44   27.56    0.02    0.00    0.00    0.00    0.00     0.99    0.00    0.12    0.00    4.96
  326   26.30   18.10    0.01    0.92    5.96    0.00  197.02    0.57    1.08   20.32    0.03    0.00    0.00    0.00    0.00     1.02    0.00    0.13    0.00    3.99
  327    0.20    0.06    0.01    0.94    1.51    0.00  193.55    2.10    2.11    1.05    0.00    0.00    0.00    0.00    0.00     0.84    0.00    0.10    0.00    0.00
  328    0.00    0.00    0.01    0.96    0.00    0.00  193.55    0.00    6.85    1.00    0.00    0.00    0.00    0.00    0.00     0.69    0.00    0.09    0.00    0.00
  329    0.00    0.00    0.01    0.98    0.00    0.00  193.55    0.00    7.00    1.02    0.00    0.00    0.00    0.00    0.00     0.57    0.00    0.07    0.00    0.00
  330    0.00    0.00    0.00    1.00    0.00    0.00  193.55    0.00    6.31    1.03    0.00    0.00    0.00    0.00    0.00     0.47    0.00    0.06    0.00    0.00
  331    0.00    0.00    0.00    1.01    0.00    0.00  193.55    0.00    7.52    1.05    0.00    0.00    0.00    0.00    0.00     0.39    0.00    0.05    0.00    0.00
  332    0.00    0.00    0.00    1.03    0.00    0.00  193.55    0.00    7.50    1.06    0.00    0.00    0.00    0.00    0.00     0.32    0.00    0.04    0.00    0.00
  333    0.00    0.00    0.00    1.03    0.00    0.00  193.55    0.00    6.07    1.07    0.00    0.00    0.00    0.00    0.00     0.26    0.00    0.03    0.00    0.00
  334    0.00    0.00    0.00    1.04    0.00    0.00  193.55    0.00    6.21    1.08    0.00    0.00    0.00    0.00    0.00     0.22    0.00    0.03    0.00    0.00
   11  246.90  177.75    0.15   21.36   30.47    0.00  193.55   27.01  136.09  199.98    0.27    0.00    0.00    0.00    0.00    16.35    0.02    2.02    0.00   29.81
  335   17.70   14.32    0.00    1.05    0.00    0.00  193.55    0.00    1.38   15.07    0.01    0.00    0.00    0.00    0.00     0.33    0.00    0.04    0.00    3.64
  336    0.00    0.00    0.00    1.05    0.00    0.00  193.55    0.00    6.00    1.41    0.00    0.00    0.00    0.00    0.00     0.27    0.00    0.03    0.00    0.00
  337    0.00    0.00    0.00    1.05    0.00    0.00  193.55    0.00    6.29    1.08    0.00    0.00    0.00    0.00    0.00     0.22    0.00    0.03    0.00    0.00
  338    0.00    0.00    0.00    1.05    0.00    0.00  193.55    0.00    5.42    1.08    0.00    0.00    0.00    0.00    0.00     0.18    0.00    0.02    0.00    0.00
  339    0.00    0.00    0.00    1.05    0.00    0.00  193.55    0.00    5.32    1.08    0.00    0.00    0.00    0.00    0.00     0.15    0.00    0.02    0.00    0.00
  340    0.00    0.00    0.00    1.04    0.00    0.00  193.55    0.00    4.85    1.08    0.00    0.00    0.00    0.00    0.00     0.12    0.00    0.02    0.00    0.00
  341    0.00    0.00    0.00    1.04    0.00    0.00  193.55    0.00    5.44    1.07    0.00    0.00    0.00    0.00    0.00     0.10    0.00    0.01    0.00    0.00
  342    0.00    0.00    0.00    1.03    0.00    0.00  193.55    0.00    5.97    1.07    0.00    0.00    0.00    0.00    0.00     0.08    0.00    0.01    0.00    0.00
  343    0.00    0.00    0.00    1.02    0.00    0.00  193.55    0.00    5.22    1.06    0.00    0.00    0.00    0.00    0.00     0.07    0.00    0.01    0.00    0.00
  344    0.00    0.00    0.00    1.02    0.00    0.00  193.55    0.00    6.36    1.05    0.00    0.00    0.00    0.00    0.00     0.06    0.00    0.01    0.00    0.00
  345    0.00    0.00    0.00    1.01    0.00    0.00  193.55    0.00    4.73    1.04    0.00    0.00    0.00    0.00    0.00     0.05    0.00    0.01    0.00    0.00
  346    0.00    0.00    0.00    1.00    0.00    0.00  193.55    0.00    4.93    1.03    0.00    0.00    0.00    0.00    0.00     0.04    0.00    0.00    0.00    0.00
  347    0.00    0.00    0.00    0.99    0.00    0.00  193.55    0.00    4.82    1.02    0.00    0.00    0.00    0.00    0.00     0.03    0.00    0.00    0.00    0.00
  348    0.00    0.00    0.00    0.97    0.00    0.00  193.55    0.00    5.19    1.01    0.00    0.00    0.00    0.00    0.00     0.03    0.00    0.00    0.00    0.00
  349    0.00    0.00    0.00    0.96    0.00    0.00  193.55    0.00    4.73    1.00    0.00    0.00    0.00    0.00    0.00     0.02    0.00    0.00    0.00    0.00
  350    0.00    0.00    0.00    0.95    0.00    0.00  193.55    0.00    5.41    0.99    0.00    0.00    0.00    0.00    0.00     0.02    0.00    0.00    0.00    0.00
  351    0.80    0.23    0.00    0.94    0.00    0.00  194.11    0.00    2.18    1.20    0.00    0.00    0.00    0.00    0.00     0.02    0.00    0.00    0.00    0.00
  352   29.00   19.41    0.00    0.93    6.05    0.00  195.71    1.92    1.92   20.37    0.02    0.00    0.00    0.00    0.00     0.22    0.00    0.03    0.00    5.05
  353    0.00    0.00    0.00    0.93    1.16    0.00  191.86    2.68    5.11    0.97    0.00    0.00    0.00    0.00    0.00     0.18    0.00    0.02    0.00    0.00
  354    7.10    2.59    0.00    0.93    0.95    0.00  194.47    0.94    1.80    3.55    0.00    0.00    0.00    0.00    0.00     0.17    0.00    0.02    0.00    0.57
  355   69.90   41.47    0.00    0.94   16.35    0.00  200.16    1.94    1.94   40.39    0.02    0.00    0.00    0.00    0.00     0.59    0.00    0.07    0.00    9.31
  356   43.70   25.08    0.01    0.98   13.08    0.00  199.89    0.79    1.50   25.07    0.02    0.00    0.00    0.00    0.00     0.71    0.00    0.09    0.00    4.36
  357   18.40   10.49    0.01    1.02    8.91    0.00  197.50    1.36    1.37   14.63    0.02    0.00    0.00    0.00    0.00     0.68    0.00    0.08    0.00    3.10
  358    7.40    2.47    0.01    1.07    5.17    0.00  196.35    0.90    1.72    3.58    0.00    0.00    0.00    0.00    0.00     0.58    0.00    0.07    0.00    0.36
  359    0.00    0.00    0.01    1.11    0.94    0.00  192.65    2.76    5.27    1.15    0.00    0.00    0.00    0.00    0.00     0.48    0.00    0.06    0.00    0.00
  360    0.00    0.00    0.01    1.14    0.00    0.00  192.65    0.00    5.99    1.19    0.00    0.00    0.00    0.00    0.00     0.39    0.00    0.05    0.00    0.00
  361    0.00    0.00    0.01    1.17    0.00    0.00  192.65    0.00    4.88    1.22    0.00    0.00    0.00    0.00    0.00     0.32    0.00    0.04    0.00    0.00
  362    0.00    0.00    0.01    1.20    0.00    0.00  192.65    0.00    6.58    1.25    0.00    0.00    0.00    0.00    0.00     0.27    0.00    0.03    0.00    0.00
  363    0.00    0.00    0.01    1.23    0.00    0.00  192.65    0.00    5.02    1.27    0.00    0.00    0.00    0.00    0.00     0.22    0.00    0.03    0.00    0.00
  364    0.00    0.00    0.01    1.25    0.00    0.00  192.65    0.00    5.82    1.29    0.00    0.00    0.00    0.00    0.00     0.18    0.00    0.02    0.00    0.00
  365    0.00    0.00    0.01    1.26    0.00    0.00  192.65    0.00    8.31    1.31    0.00    0.00    0.00    0.00    0.00     0.15    0.00    0.02    0.00    0.00
   12  194.00  116.05    0.14   32.36   52.61    0.00  192.65   13.29  141.43  149.60    0.09    0.00    0.00    0.01    0.00     6.95    0.01    0.86    0.00   26.37

 2001 1429.70  854.40    0.61   53.79  169.32    0.00  192.65  281.76 1935.02  910.77    0.77    0.01    0.00    0.03   20.01    91.60    0.12   11.31    0.00  172.37
1
    SWAT Sep 7    VER 2018/Rev 670                                                  

    General Input/Output section (file.cio):                                        
    02/05/2024 12:00:00 AM ARCGIS-SWAT interface AV                                 
                                                                                    
    FINAL VALUES

1
    SWAT Sep 7    VER 2018/Rev 670                                                  

    General Input/Output section (file.cio):                                        
    02/05/2024 12:00:00 AM ARCGIS-SWAT interface AV                                 
                                                                                    
                                            Average Plant Values (kg/ha)

  HRU       1 SUB   1 BERM  Yld =  2103.8 BIOM =   2959.2

    HRU STATISTICS

                AVE ANNUAL VALUES

   HRU  SUB  SOIL       AREAkm2    CN     AWCmm   USLE_LS  IRRmm  AUTONkh AUTOPkh  MIXEF PRECmm SURQGENmm   GWQmm    ETmm   SEDth  NO3kgh  ORGNkgh BIOMth   YLDth  SURQmm
      1   1   Habitati   .830E+03   86.22  195.00    0.56    0.00  350.00    0.00    0.20 1429.70  854.40   54.40  281.76    0.77    0.01   91.60    2.96    2.10  854.40



                AVE MONTHLY BASIN VALUES
                   SNOW                      WATER               SED
  MON     RAIN     FALL   SURF Q    LAT Q    YIELD       ET    YIELD      PET
          (MM)     (MM)     (MM)     (MM)     (MM)     (MM)   (T/HA)     (MM)
    1     0.00     0.00     0.00     0.00     0.00     0.00     0.00   169.80
    2     0.00     0.00     0.00     0.00     0.00     0.00     0.00   164.56
    3     0.00     0.00     0.00     0.00     0.00    57.42     0.00   186.24
    4    98.90     0.00    43.22     0.02    43.23    85.23     0.00   184.37
    5    14.10     0.00     5.13     0.02     5.15    23.57     0.00   185.17
    6    57.40     0.00    28.57     0.02    28.60    20.84     0.00   180.22
    7   176.20     0.00    77.55     0.04    77.59     5.92     0.01   142.56
    8    61.60     0.00    28.73     0.05    28.78     7.28     0.01   169.83
    9   149.30     0.00    91.71     0.05    91.76     6.21     0.07   133.78
   10   431.30     0.00   285.69     0.12   286.08    35.00     0.32   140.96
   11   246.90     0.00   177.75     0.15   199.98    27.01     0.27   136.09
   12   194.00     0.00   116.05     0.14   149.60    13.29     0.09   141.43

     AVE ANNUAL BASIN STRESS DAYS
               WATER STRESS DAYS =    22.09
               TEMPERATURE STRESS DAYS =     7.00
               NITROGEN STRESS DAYS =    69.20
               PHOSPHORUS STRESS DAYS =     0.00
               AERATION STRESS DAYS =     0.00
1
    SWAT Sep 7    VER 2018/Rev 670                                                  

    General Input/Output section (file.cio):                                        
    02/05/2024 12:00:00 AM ARCGIS-SWAT interface AV                                 
                                                                                    
         AVE ANNUAL BASIN VALUES

              PRECIP =   1429.7 MM
              SNOW FALL =    0.00 MM
              SNOW MELT =     0.00 MM
              SUBLIMATION =     0.00 MM
              SURFACE RUNOFF Q =   854.40 MM
              LATERAL SOIL Q =    0.61 MM
              TILE Q =     0.00 MM
              GROUNDWATER (SHAL AQ) Q =    53.79 MM
              GROUNDWATER (DEEP AQ) Q =     1.97 MM
              REVAP (SHAL AQ => SOIL/PLANTS) =   38.70 MM
              DEEP AQ RECHARGE =     5.89 MM
              TOTAL AQ RECHARGE =  117.84 MM
              TOTAL WATER YLD =   910.77 MM
              PERCOLATION OUT OF SOIL =  169.32 MM
              ET =    281.8 MM
              PET =   1935.0MM
              TRANSMISSION LOSSES =     0.00 MM
              SEPTIC INFLOW =       0.00 MM
              TOTAL SEDIMENT LOADING =      0.77 T/HA
              TILE FROM IMPOUNDED WATER =     0.000 (MM)
              EVAPORATION FROM IMPOUNDED WATER =     0.000 (MM)
              SEEPAGE INTO SOIL FROM IMPOUNDED WATER =    0.000 (MM)
              OVERFLOW FROM IMPOUNDED WATER =    0.000 (MM)
1
    SWAT Sep 7    VER 2018/Rev 670                                                  

    General Input/Output section (file.cio):                                        
    02/05/2024 12:00:00 AM ARCGIS-SWAT interface AV                                 
                                                                                    
              AVE ANNUAL BASIN VALUES


              NUTRIENTS
                   ORGANIC N =    91.596 (KG/HA)
                   ORGANIC P =    11.315 (KG/HA)
                   NO3 YIELD (SQ) =     0.011 (KG/HA)
                   NO3 YIELD (LAT) =    0.000 (KG/HA)
                   NO3 YIELD (TILE) =    0.000 (KG/HA)
                   SOLP YIELD (TILE) =    0.000(KG/HA)
                   SOLP YIELD (SURF INLET RISER) =    0.000 (KG/HA)
                   SOL P YIELD =    0.124 (KG/HA)
                   NO3 LEACHED =     0.027 (KG/HA)
                   P LEACHED =     0.069 (KG/HA)
                   N UPTAKE =    20.013 (KG/HA)
                   P UPTAKE =    5.647 (KG/HA)
                   NO3 YIELD (GWQ) =     0.000 (KG/HA)
                   ACTIVE TO SOLUTION P FLOW =        21.471 (KG/HA)
                   ACTIVE TO STABLE P FLOW =        77.967 (KG/HA)
                   N FERTILIZER APPLIED =   350.000 (KG/HA)
                   P FERTILIZER APPLIED =     0.000 (KG/HA)
                   N FIXATION =     0.000 (KG/HA)
                   DENITRIFICATION =   398.321 (KG/HA)
                   HUMUS MIN ON ACTIVE ORG N =    28.959 (KG/HA)
                   ACTIVE TO STABLE ORG N =    -2.349 (KG/HA)
                   HUMUS MIN ON ACTIVE ORG P =    4.965 (KG/HA)
                   MIN FROM FRESH ORG N =    3.178 (KG/HA)
                   MIN FROM FRESH ORG P =    0.897 (KG/HA)
                   NO3 IN RAINFALL =     0.000 (KG/HA)
                   INITIAL NO3 IN SOIL =      36.907 (KG/HA)
                   FINAL NO3 IN SOIL =         0.037 (KG/HA)
                   INITIAL ORG N IN SOIL =   16500.000 (KG/HA)
                   FINAL ORG N IN SOIL =     16380.207 (KG/HA)
                   INITIAL MIN P IN SOIL =    3423.068 (KG/HA)
                   FINAL MIN P IN SOIL =      3404.654 (KG/HA)
                   INITIAL ORG P IN SOIL =    2021.250 (KG/HA)
                   FINAL ORG P IN SOIL =    2005.297 (KG/HA)
                   NO3 IN FERT =   350.000 (KG/HA)
                   AMMONIA IN FERT =     0.000 (KG/HA)
                   ORG N IN FERT =     0.000 (KG/HA)
                   MINERAL P IN FERT =     0.000 (KG/HA)
                   ORG P IN FERT =     0.000 (KG/HA)
                   N REMOVED IN YIELD =    16.010 (KG/HA)
                   P REMOVED IN YIELD =     4.518 (KG/HA)
                   AMMONIA VOLATILIZATION =     0.000 (KG/HA)
                   AMMONIA NITRIFICATION =      0.000 (KG/HA)
                   NO3 EVAP-LAYER 2 TO 1 =    0.001

                   DIE-GRO P Q =           0.0 (No/M2)
                   DIE-GRO LP Q =           0.0 (No/M2)
                   DIE-GRO P SED =          0.0 (No/M2)
                   DIE-GRO LP SED =          0.0 (No/M2)
                   BACT P RUNOFF =          0.0 (No/M2)
                   BACT LP RUNOFF =          0.0 (No/M2)
                   BACT P SEDIMENT =          0.0 (No/M2)
                   BACT LP SEDIMENT =          0.0 (No/M2)
                   BACT P INCORP =          0.0 (No/M2)
                   BACT LP INCORP =          0.0 (No/M2)

                   NITRATE SEPTIC =         0.00 (kg/ha)
                   AMMONIA SEPTIC =         0.00 (kg/ha)
                   ORG N SEPTIC =         0.00 (kg/ha)
                   FRESH ORGN SEPTIC =         0.00 (kg/ha)
                   ORG P SEPTIC =         0.00 (kg/ha)
                   FRESH ORGP SEPTIC =         0.00 (kg/ha)
                   SOL P SEPTIC =         0.00 (kg/ha)
                   BOD SEPTIC =         0.00 (kg/ha)
