1
    SWAT Sep 7    VER 2018/Rev 670                                                                       0/ 0/   0      0: 0: 0

    General Input/Output section (file.cio):                                        
    02/05/2024 12:00:00 AM ARCGIS-SWAT interface AV                                 
                                                                                    
         Number of years in run:    1
         Area of watershed:      830.234 km2
1
    SWAT Sep 7    VER 2018/Rev 670                                                  

    General Input/Output section (file.cio):                                        
    02/05/2024 12:00:00 AM ARCGIS-SWAT interface AV                                 
                                                                                    
Annual Summary for Watershed in year    1 of simulation

UNIT                                    PERCO    TILE                           WATER     SED     NO3     NO3     NO3     NO3        N       P       P
TIME     PREC    SURQ    LATQ     GWQ    LATE       Q     SW       ET     PET   YIELD   YIELD    SURQ    LATQ    PERC    CROP  ORGANIC SOLUBLE ORGANIC TILENO3
         (mm)    (mm)    (mm)    (mm)    (mm)    (mm)    (mm)    (mm)    (mm)    (mm)   (t/ha)  ------------------(kg nutrient/ha)-------------------- (kg/ha)
    1    0.00    0.00    0.00    0.00    0.00    0.00  131.14    0.00    5.10    0.00    0.00    0.00    0.00    0.00    0.00     0.00    0.00    0.00    0.00    0.00
    2    0.00    0.00    0.00    0.00    0.00    0.00  131.14    0.00    7.03    0.00    0.00    0.00    0.00    0.00    0.00     0.00    0.00    0.00    0.00    0.00
    3    0.00    0.00    0.00    0.00    0.00    0.00  131.14    0.00    5.78    0.00    0.00    0.00    0.00    0.00    0.00     0.00    0.00    0.00    0.00    0.00
    4    0.00    0.00    0.00    0.00    0.00    0.00  131.14    0.00    5.32    0.00    0.00    0.00    0.00    0.00    0.00     0.00    0.00    0.00    0.00    0.00
    5    0.00    0.00    0.00    0.00    0.00    0.00  131.14    0.00    5.46    0.00    0.00    0.00    0.00    0.00    0.00     0.00    0.00    0.00    0.00    0.00
    6    0.00    0.00    0.00    0.00    0.00    0.00  131.14    0.00    5.57    0.00    0.00    0.00    0.00    0.00    0.00     0.00    0.00    0.00    0.00    0.00
    7    0.00    0.00    0.00    0.00    0.00    0.00  131.14    0.00    5.73    0.00    0.00    0.00    0.00    0.00    0.00     0.00    0.00    0.00    0.00    0.00
    8    0.00    0.00    0.00    0.00    0.00    0.00  131.14    0.00    5.54    0.00    0.00    0.00    0.00    0.00    0.00     0.00    0.00    0.00    0.00    0.00
    9    0.00    0.00    0.00    0.00    0.00    0.00  131.14    0.00    5.23    0.00    0.00    0.00    0.00    0.00    0.00     0.00    0.00    0.00    0.00    0.00
   10    0.00    0.00    0.00    0.00    0.00    0.00  131.14    0.00    6.24    0.00    0.00    0.00    0.00    0.00    0.00     0.00    0.00    0.00    0.00    0.00
   11    0.00    0.00    0.00    0.00    0.00    0.00  131.14    0.00    5.05    0.00    0.00    0.00    0.00    0.00    0.00     0.00    0.00    0.00    0.00    0.00
   12    0.00    0.00    0.00    0.00    0.00    0.00  131.14    0.00    5.21    0.00    0.00    0.00    0.00    0.00    0.00     0.00    0.00    0.00    0.00    0.00
   13    0.00    0.00    0.00    0.00    0.00    0.00  131.14    0.00    4.88    0.00    0.00    0.00    0.00    0.00    0.00     0.00    0.00    0.00    0.00    0.00
   14    0.00    0.00    0.00    0.00    0.00    0.00  131.14    0.00    5.65    0.00    0.00    0.00    0.00    0.00    0.00     0.00    0.00    0.00    0.00    0.00
   15    0.00    0.00    0.00    0.00    0.00    0.00  131.14    0.00    5.55    0.00    0.00    0.00    0.00    0.00    0.00     0.00    0.00    0.00    0.00    0.00
   16    0.00    0.00    0.00    0.00    0.00    0.00  131.14    0.00    5.96    0.00    0.00    0.00    0.00    0.00    0.00     0.00    0.00    0.00    0.00    0.00
   17    0.00    0.00    0.00    0.00    0.00    0.00  131.14    0.00    4.90    0.00    0.00    0.00    0.00    0.00    0.00     0.00    0.00    0.00    0.00    0.00
   18    0.00    0.00    0.00    0.00    0.00    0.00  131.14    0.00    5.33    0.00    0.00    0.00    0.00    0.00    0.00     0.00    0.00    0.00    0.00    0.00
   19    0.00    0.00    0.00    0.00    0.00    0.00  131.14    0.00    4.85    0.00    0.00    0.00    0.00    0.00    0.00     0.00    0.00    0.00    0.00    0.00
   20    0.00    0.00    0.00    0.00    0.00    0.00  131.14    0.00    4.74    0.00    0.00    0.00    0.00    0.00    0.00     0.00    0.00    0.00    0.00    0.00
   21    0.00    0.00    0.00    0.00    0.00    0.00  131.14    0.00    6.45    0.00    0.00    0.00    0.00    0.00    0.00     0.00    0.00    0.00    0.00    0.00
   22    0.00    0.00    0.00    0.00    0.00    0.00  131.14    0.00    6.66    0.00    0.00    0.00    0.00    0.00    0.00     0.00    0.00    0.00    0.00    0.00
   23    0.00    0.00    0.00    0.00    0.00    0.00  131.14    0.00    4.79    0.00    0.00    0.00    0.00    0.00    0.00     0.00    0.00    0.00    0.00    0.00
   24    0.00    0.00    0.00    0.00    0.00    0.00  131.14    0.00    5.14    0.00    0.00    0.00    0.00    0.00    0.00     0.00    0.00    0.00    0.00    0.00
   25    0.00    0.00    0.00    0.00    0.00    0.00  131.14    0.00    6.32    0.00    0.00    0.00    0.00    0.00    0.00     0.00    0.00    0.00    0.00    0.00
   26    0.00    0.00    0.00    0.00    0.00    0.00  131.14    0.00    5.60    0.00    0.00    0.00    0.00    0.00    0.00     0.00    0.00    0.00    0.00    0.00
   27    0.00    0.00    0.00    0.00    0.00    0.00  131.14    0.00    5.04    0.00    0.00    0.00    0.00    0.00    0.00     0.00    0.00    0.00    0.00    0.00
   28    0.00    0.00    0.00    0.00    0.00    0.00  131.14    0.00    5.10    0.00    0.00    0.00    0.00    0.00    0.00     0.00    0.00    0.00    0.00    0.00
   29    0.00    0.00    0.00    0.00    0.00    0.00  131.14    0.00    5.02    0.00    0.00    0.00    0.00    0.00    0.00     0.00    0.00    0.00    0.00    0.00
   30    0.00    0.00    0.00    0.00    0.00    0.00  131.14    0.00    5.34    0.00    0.00    0.00    0.00    0.00    0.00     0.00    0.00    0.00    0.00    0.00
   31    0.00    0.00    0.00    0.00    0.00    0.00  131.14    0.00    5.23    0.00    0.00    0.00    0.00    0.00    0.00     0.00    0.00    0.00    0.00    0.00
    1    0.00    0.00    0.00    0.00    0.00    0.00  131.14    0.00  169.80    0.00    0.00    0.00    0.00    0.00    0.00     0.00    0.00    0.00    0.00    0.00
   32    0.00    0.00    0.00    0.00    0.00    0.00  131.14    0.00    5.46    0.00    0.00    0.00    0.00    0.00    0.00     0.00    0.00    0.00    0.00    0.00
   33    0.00    0.00    0.00    0.00    0.00    0.00  131.14    0.00    6.20    0.00    0.00    0.00    0.00    0.00    0.00     0.00    0.00    0.00    0.00    0.00
   34    0.00    0.00    0.00    0.00    0.00    0.00  131.14    0.00    6.13    0.00    0.00    0.00    0.00    0.00    0.00     0.00    0.00    0.00    0.00    0.00
   35    0.00    0.00    0.00    0.00    0.00    0.00  131.14    0.00    5.17    0.00    0.00    0.00    0.00    0.00    0.00     0.00    0.00    0.00    0.00    0.00
   36    0.00    0.00    0.00    0.00    0.00    0.00  131.14    0.00    5.83    0.00    0.00    0.00    0.00    0.00    0.00     0.00    0.00    0.00    0.00    0.00
   37    0.00    0.00    0.00    0.00    0.00    0.00  131.14    0.00    5.21    0.00    0.00    0.00    0.00    0.00    0.00     0.00    0.00    0.00    0.00    0.00
   38    0.00    0.00    0.00    0.00    0.00    0.00  131.14    0.00    6.53    0.00    0.00    0.00    0.00    0.00    0.00     0.00    0.00    0.00    0.00    0.00
   39    0.00    0.00    0.00    0.00    0.00    0.00  131.14    0.00    5.60    0.00    0.00    0.00    0.00    0.00    0.00     0.00    0.00    0.00    0.00    0.00
   40    0.00    0.00    0.00    0.00    0.00    0.00  131.14    0.00    6.31    0.00    0.00    0.00    0.00    0.00    0.00     0.00    0.00    0.00    0.00    0.00
   41    0.00    0.00    0.00    0.00    0.00    0.00  131.14    0.00    5.46    0.00    0.00    0.00    0.00    0.00    0.00     0.00    0.00    0.00    0.00    0.00
   42    0.00    0.00    0.00    0.00    0.00    0.00  131.14    0.00    5.06    0.00    0.00    0.00    0.00    0.00    0.00     0.00    0.00    0.00    0.00    0.00
   43    0.00    0.00    0.00    0.00    0.00    0.00  131.14    0.00    5.72    0.00    0.00    0.00    0.00    0.00    0.00     0.00    0.00    0.00    0.00    0.00
   44    0.00    0.00    0.00    0.00    0.00    0.00  131.14    0.00    6.17    0.00    0.00    0.00    0.00    0.00    0.00     0.00    0.00    0.00    0.00    0.00
   45    0.00    0.00    0.00    0.00    0.00    0.00  131.14    0.00    6.35    0.00    0.00    0.00    0.00    0.00    0.00     0.00    0.00    0.00    0.00    0.00
   46    0.00    0.00    0.00    0.00    0.00    0.00  131.14    0.00    6.45    0.00    0.00    0.00    0.00    0.00    0.00     0.00    0.00    0.00    0.00    0.00
   47    0.00    0.00    0.00    0.00    0.00    0.00  131.14    0.00    5.48    0.00    0.00    0.00    0.00    0.00    0.00     0.00    0.00    0.00    0.00    0.00
   48    0.00    0.00    0.00    0.00    0.00    0.00  131.14    0.00    5.86    0.00    0.00    0.00    0.00    0.00    0.00     0.00    0.00    0.00    0.00    0.00
   49    0.00    0.00    0.00    0.00    0.00    0.00  131.14    0.00    5.89    0.00    0.00    0.00    0.00    0.00    0.00     0.00    0.00    0.00    0.00    0.00
   50    0.00    0.00    0.00    0.00    0.00    0.00  131.14    0.00    5.63    0.00    0.00    0.00    0.00    0.00    0.00     0.00    0.00    0.00    0.00    0.00
   51    0.00    0.00    0.00    0.00    0.00    0.00  131.14    0.00    5.55    0.00    0.00    0.00    0.00    0.00    0.00     0.00    0.00    0.00    0.00    0.00
   52    0.00    0.00    0.00    0.00    0.00    0.00  131.14    0.00    6.56    0.00    0.00    0.00    0.00    0.00    0.00     0.00    0.00    0.00    0.00    0.00
   53    0.00    0.00    0.00    0.00    0.00    0.00  131.14    0.00    6.01    0.00    0.00    0.00    0.00    0.00    0.00     0.00    0.00    0.00    0.00    0.00
   54    0.00    0.00    0.00    0.00    0.00    0.00  131.14    0.00    5.08    0.00    0.00    0.00    0.00    0.00    0.00     0.00    0.00    0.00    0.00    0.00
   55    0.00    0.00    0.00    0.00    0.00    0.00  131.14    0.00    6.52    0.00    0.00    0.00    0.00    0.00    0.00     0.00    0.00    0.00    0.00    0.00
   56    0.00    0.00    0.00    0.00    0.00    0.00  131.14    0.00    5.59    0.00    0.00    0.00    0.00    0.00    0.00     0.00    0.00    0.00    0.00    0.00
   57    0.00    0.00    0.00    0.00    0.00    0.00  131.14    0.00    6.94    0.00    0.00    0.00    0.00    0.00    0.00     0.00    0.00    0.00    0.00    0.00
   58    0.00    0.00    0.00    0.00    0.00    0.00  131.14    0.00    6.23    0.00    0.00    0.00    0.00    0.00    0.00     0.00    0.00    0.00    0.00    0.00
   59    0.00    0.00    0.00    0.00    0.00    0.00  131.14    0.00    5.58    0.00    0.00    0.00    0.00    0.00    0.00     0.00    0.00    0.00    0.00    0.00
    2    0.00    0.00    0.00    0.00    0.00    0.00  131.14    0.00  164.56    0.00    0.00    0.00    0.00    0.00    0.00     0.00    0.00    0.00    0.00    0.00
   60    0.00    0.00    0.00    0.00    0.00    0.00  131.14    0.00    5.89    0.00    0.00    0.00    0.00    0.00    0.00     0.00    0.00    0.00    0.00    0.00
   61    0.00    0.00    0.00    0.00    0.00    0.00  131.14    0.00    5.57    0.00    0.00    0.00    0.00    0.00    0.00     0.00    0.00    0.00    0.00    0.00
   62    0.00    0.00    0.00    0.00    0.00    0.00  131.02    0.12    6.46    0.00    0.00    0.00    0.00    0.00    0.00     0.00    0.00    0.00    0.00    0.00
   63    0.00    0.00    0.00    0.00    0.00    0.00  130.78    0.24    5.72    0.00    0.00    0.00    0.00    0.00    0.03     0.00    0.00    0.00    0.00    0.00
   64    0.00    0.00    0.00    0.00    0.00    0.00  130.43    0.35    6.45    0.00    0.00    0.00    0.00    0.00    0.02     0.00    0.00    0.00    0.00    0.00
   65    0.00    0.00    0.00    0.00    0.00    0.00  129.96    0.47    6.28    0.00    0.00    0.00    0.00    0.00    1.17     0.00    0.00    0.00    0.00    0.00
   66    0.00    0.00    0.00    0.00    0.00    0.00  129.35    0.61    6.26    0.00    0.00    0.00    0.00    0.00    1.36     0.00    0.00    0.00    0.00    0.00
   67    0.00    0.00    0.00    0.00    0.00    0.00  128.54    0.81    6.18    0.00    0.00    0.00    0.00    0.00    0.54     0.00    0.00    0.00    0.00    0.00
   68    0.00    0.00    0.00    0.00    0.00    0.00  126.44    2.10    5.31    0.00    0.00    0.00    0.00    0.00    3.75     0.00    0.00    0.00    0.00    0.00
   69    0.00    0.00    0.00    0.00    0.00    0.00  124.81    1.63    5.46    0.00    0.00    0.00    0.00    0.00    1.50     0.00    0.00    0.00    0.00    0.00
   70    0.00    0.00    0.00    0.00    0.00    0.00  123.49    1.32    6.12    0.00    0.00    0.00    0.00    0.00    0.89     0.00    0.00    0.00    0.00    0.00
   71    0.00    0.00    0.00    0.00    0.00    0.00  120.92    2.57    5.75    0.00    0.00    0.00    0.00    0.00    6.94     0.00    0.00    0.00    0.00    0.00
   72    0.00    0.00    0.00    0.00    0.00    0.00  118.76    2.16    5.83    0.00    0.00    0.00    0.00    0.00    1.14     0.00    0.00    0.00    0.00    0.00
   73    0.00    0.00    0.00    0.00    0.00    0.00  116.17    2.60    6.34    0.00    0.00    0.00    0.00    0.00    1.12     0.00    0.00    0.00    0.00    0.00
   74    0.00    0.00    0.00    0.00    0.00    0.00  113.68    2.49    6.84    0.00    0.00    0.00    0.00    0.00    0.10     0.00    0.00    0.00    0.00    0.00
   75    0.00    0.00    0.00    0.00    0.00    0.00  111.52    2.17    5.94    0.00    0.00    0.00    0.00    0.00    0.02     0.00    0.00    0.00    0.00    0.00
   76    0.00    0.00    0.00    0.00    0.00    0.00  109.33    2.18    7.16    0.00    0.00    0.00    0.00    0.00    0.02     0.00    0.00    0.00    0.00    0.00
   77    0.00    0.00    0.00    0.00    0.00    0.00  107.04    2.29    7.33    0.00    0.00    0.00    0.00    0.00    0.02     0.00    0.00    0.00    0.00    0.00
   78    0.00    0.00    0.00    0.00    0.00    0.00  104.44    2.60    5.89    0.00    0.00    0.00    0.00    0.00    0.02     0.00    0.00    0.00    0.00    0.00
   79    0.00    0.00    0.00    0.00    0.00    0.00  101.51    2.94    5.60    0.00    0.00    0.00    0.00    0.00    0.02     0.00    0.00    0.00    0.00    0.00
   80    0.00    0.00    0.00    0.00    0.00    0.00   99.15    2.36    5.61    0.00    0.00    0.00    0.00    0.00    0.02     0.00    0.00    0.00    0.00    0.00
   81    0.00    0.00    0.00    0.00    0.00    0.00   96.41    2.74    5.79    0.00    0.00    0.00    0.00    0.00    0.02     0.00    0.00    0.00    0.00    0.00
   82    0.00    0.00    0.00    0.00    0.00    0.00   94.09    2.32    6.18    0.00    0.00    0.00    0.00    0.00    0.02     0.00    0.00    0.00    0.00    0.00
   83    0.00    0.00    0.00    0.00    0.00    0.00   91.23    2.86    5.95    0.00    0.00    0.00    0.00    0.00    0.02     0.00    0.00    0.00    0.00    0.00
   84    0.00    0.00    0.00    0.00    0.00    0.00   88.56    2.67    5.76    0.00    0.00    0.00    0.00    0.00    0.02     0.00    0.00    0.00    0.00    0.00
   85    0.00    0.00    0.00    0.00    0.00    0.00   86.33    2.23    6.30    0.00    0.00    0.00    0.00    0.00    0.02     0.00    0.00    0.00    0.00    0.00
   86    0.00    0.00    0.00    0.00    0.00    0.00   84.10    2.23    5.43    0.00    0.00    0.00    0.00    0.00    0.02     0.00    0.00    0.00    0.00    0.00
   87    0.00    0.00    0.00    0.00    0.00    0.00   81.10    3.00    5.85    0.00    0.00    0.00    0.00    0.00    0.02     0.00    0.00    0.00    0.00    0.00
   88    0.00    0.00    0.00    0.00    0.00    0.00   78.53    2.57    5.51    0.00    0.00    0.00    0.00    0.00    0.02     0.00    0.00    0.00    0.00    0.00
   89    0.00    0.00    0.00    0.00    0.00    0.00   75.93    2.60    5.63    0.00    0.00    0.00    0.00    0.00    0.02     0.00    0.00    0.00    0.00    0.00
   90    0.00    0.00    0.00    0.00    0.00    0.00   73.73    2.20    5.83    0.00    0.00    0.00    0.00    0.00    0.02     0.00    0.00    0.00    0.00    0.00
    3    0.00    0.00    0.00    0.00    0.00    0.00   73.73   57.42  186.24    0.00    0.00    0.00    0.00    0.00   18.92     0.00    0.00    0.00    0.00    0.00
   91    0.00    0.00    0.00    0.00    0.00    0.00   70.79    2.94    5.60    0.00    0.00    0.00    0.00    0.00    0.02     0.00    0.00    0.00    0.00    0.00
   92    0.00    0.00    0.00    0.00    0.00    0.00   68.04    2.75    6.19    0.00    0.00    0.00    0.00    0.00    0.02     0.00    0.00    0.00    0.00    0.00
   93    0.00    0.00    0.00    0.00    0.00    0.00   65.79    2.24    6.08    0.00    0.00    0.00    0.00    0.00    0.02     0.00    0.00    0.00    0.00    0.00
   94    0.00    0.00    0.00    0.00    0.00    0.00   62.65    3.14    7.67    0.00    0.00    0.00    0.00    0.00    0.02     0.00    0.00    0.00    0.00    0.00
   95    0.00    0.00    0.00    0.00    0.00    0.00   59.90    2.75    6.51    0.00    0.00    0.00    0.00    0.00    0.02     0.00    0.00    0.00    0.00    0.00
   96    0.00    0.00    0.00    0.00    0.00    0.00   57.33    2.57    6.67    0.00    0.00    0.00    0.00    0.00    0.02     0.00    0.00    0.00    0.00    0.00
   97    0.00    0.00    0.00    0.00    0.00    0.00   54.89    2.44    6.69    0.00    0.00    0.00    0.00    0.00    0.02     0.00    0.00    0.00    0.00    0.00
   98    0.00    0.00    0.00    0.00    0.00    0.00   52.29    2.60    6.52    0.00    0.00    0.00    0.00    0.00    0.02     0.00    0.00    0.00    0.00    0.00
   99    0.00    0.00    0.00    0.00    0.00    0.00   49.90    2.39    4.64    0.00    0.00    0.00    0.00    0.00    0.02     0.00    0.00    0.00    0.00    0.00
  100    0.00    0.00    0.00    0.00    0.00    0.00   47.34    2.56    6.48    0.00    0.00    0.00    0.00    0.00    0.02     0.00    0.00    0.00    0.00    0.00
  101   12.60    3.32    0.00    0.00    0.00    0.00   56.44    1.41    1.96    3.32    0.00    0.00    0.00    0.00    0.02     0.01    0.00    0.00    0.00    1.52
  102   29.00    5.95    0.00    0.00    0.00    0.00   78.42    2.88    3.89    5.95    0.00    0.00    0.00    0.00    0.02     0.03    0.00    0.00    0.00    1.82
  103   44.80   11.62    0.00    0.00    0.00    0.00  111.85    2.82    3.99   11.57    0.00    0.00    0.00    0.00    0.02     0.07    0.00    0.01    0.00    3.11
  104   12.50    2.08    0.00    0.00    0.00    0.00  122.46    1.15    1.63    2.14    0.00    0.00    0.00    0.00    0.02     0.06    0.00    0.01    0.00    0.30
  105    0.00    0.00    0.00    0.00    0.00    0.00  119.32    3.14    6.44    0.00    0.00    0.00    0.00    0.00    0.02     0.05    0.00    0.01    0.00    0.00
  106    0.00    0.00    0.00    0.00    0.00    0.00  115.71    3.60    6.95    0.00    0.00    0.00    0.00    0.00    0.02     0.04    0.00    0.01    0.00    0.00
  107    0.00    0.00    0.00    0.00    0.00    0.00  112.46    3.25    6.63    0.00    0.00    0.00    0.00    0.00    0.02     0.03    0.00    0.00    0.00    0.00
  108    0.00    0.00    0.00    0.00    0.00    0.00  109.02    3.44    6.48    0.00    0.00    0.00    0.00    0.00    0.02     0.03    0.00    0.00    0.00    0.00
  109    0.00    0.00    0.00    0.00    0.00    0.00  105.68    3.35    6.84    0.00    0.00    0.00    0.00    0.00    0.02     0.02    0.00    0.00    0.00    0.00
  110    0.00    0.00    0.00    0.00    0.00    0.00  102.10    3.58    6.37    0.00    0.00    0.00    0.00    0.00    0.02     0.02    0.00    0.00    0.00    0.00
  111    0.00    0.00    0.00    0.00    0.00    0.00   98.58    3.51    6.61    0.00    0.00    0.00    0.00    0.00    0.02     0.02    0.00    0.00    0.00    0.00
  112    0.00    0.00    0.00    0.00    0.00    0.00   94.74    3.84    7.78    0.00    0.00    0.00    0.00    0.00    0.02     0.01    0.00    0.00    0.00    0.00
  113    0.00    0.00    0.00    0.00    0.00    0.00   91.58    3.17    8.29    0.00    0.00    0.00    0.00    0.00    0.02     0.01    0.00    0.00    0.00    0.00
  114    0.00    0.00    0.00    0.00    0.00    0.00   88.15    3.42    7.40    0.00    0.00    0.00    0.00    0.00    0.02     0.01    0.00    0.00    0.00    0.00
  115    0.00    0.00    0.00    0.00    0.00    0.00   84.40    3.75    8.07    0.00    0.00    0.00    0.00    0.00    0.02     0.01    0.00    0.00    0.00    0.00
  116    0.00    0.00    0.00    0.00    0.00    0.00   81.41    2.99    6.13    0.00    0.00    0.00    0.00    0.00    0.02     0.01    0.00    0.00    0.00    0.00
  117    0.00    0.00    0.00    0.00    0.00    0.00   79.20    2.21    5.06    0.00    0.00    0.00    0.00    0.00    0.02     0.00    0.00    0.00    0.00    0.00
  118    0.00    0.00    0.00    0.00    0.00    0.00   75.49    3.72    6.78    0.00    0.00    0.00    0.00    0.00    0.02     0.00    0.00    0.00    0.00    0.00
  119    0.00    0.00    0.00    0.00    0.00    0.00   71.95    3.53    6.59    0.00    0.00    0.00    0.00    0.00    0.02     0.00    0.00    0.00    0.00    0.00
  120    0.00    0.00    0.00    0.00    0.00    0.00   68.34    3.62    7.44    0.00    0.00    0.00    0.00    0.00    0.02     0.00    0.00    0.00    0.00    0.00
    4   98.90   22.96    0.02    0.00    0.00    0.00   68.34   88.77  184.37   22.99    0.00    0.00    0.00    0.00    0.62     0.44    0.00    0.05    0.00    6.75
  121    0.00    0.00    0.00    0.00    0.00    0.00   64.58    3.75    8.98    0.00    0.00    0.00    0.00    0.00    0.02     0.00    0.00    0.00    0.00    0.00
  122    0.00    0.00    0.00    0.00    0.00    0.00   61.78    2.80    5.11    0.00    0.00    0.00    0.00    0.00    0.02     0.00    0.00    0.00    0.00    0.00
  123    0.00    0.00    0.00    0.00    0.00    0.00   59.16    2.62    5.93    0.00    0.00    0.00    0.00    0.00    0.02     0.00    0.00    0.00    0.00    0.00
  124    0.00    0.00    0.00    0.00    0.00    0.00   55.49    3.67    6.39    0.00    0.00    0.00    0.00    0.00    0.02     0.00    0.00    0.00    0.00    0.00
  125    0.00    0.00    0.00    0.00    0.00    0.00   51.91    3.58    6.74    0.00    0.00    0.00    0.00    0.00    0.02     0.00    0.00    0.00    0.00    0.00
  126    0.10    0.01    0.00    0.00    0.00    0.00   50.06    1.95    3.36    0.02    0.00    0.00    0.00    0.00    0.02     0.00    0.00    0.00    0.00    0.00
  127    0.10    0.01    0.00    0.00    0.00    0.00   48.08    2.08    4.32    0.02    0.00    0.00    0.00    0.00    0.02     0.00    0.00    0.00    0.00    0.00
  128    0.00    0.00    0.00    0.00    0.00    0.00   45.00    3.09    6.73    0.00    0.00    0.00    0.00    0.00    0.02     0.00    0.00    0.00    0.00    0.00
  129    0.00    0.00    0.00    0.00    0.00    0.00   42.32    2.68    8.87    0.00    0.00    0.00    0.00    0.00    0.02     0.00    0.00    0.00    0.00    0.00
  130    0.00    0.00    0.00    0.00    0.00    0.00   40.14    2.18    8.09    0.00    0.00    0.00    0.00    0.00    0.02     0.00    0.00    0.00    0.00    0.00
  131    0.00    0.00    0.00    0.00    0.00    0.00   38.78    1.36    5.83    0.00    0.00    0.00    0.00    0.00    0.02     0.00    0.00    0.00    0.00    0.00
  132    0.00    0.00    0.00    0.00    0.00    0.00   37.35    1.43    8.18    0.00    0.00    0.00    0.00    0.00    0.02     0.00    0.00    0.00    0.00    0.00
  133    0.00    0.00    0.00    0.00    0.00    0.00   36.48    0.88    5.57    0.00    0.00    0.00    0.00    0.00    0.02     0.00    0.00    0.00    0.00    0.00
  134    0.00    0.00    0.00    0.00    0.00    0.00   35.51    0.97    6.17    0.00    0.00    0.00    0.00    0.00    0.02     0.00    0.00    0.00    0.00    0.00
  135    0.00    0.00    0.00    0.00    0.00    0.00   34.82    0.69    5.80    0.00    0.00    0.00    0.00    0.00    0.02     0.00    0.00    0.00    0.00    0.00
  136    0.00    0.00    0.00    0.00    0.00    0.00   34.00    0.82    6.57    0.00    0.00    0.00    0.00    0.00    0.02     0.00    0.00    0.00    0.00    0.00
  137    0.00    0.00    0.00    0.00    0.00    0.00   33.17    0.84    8.67    0.00    0.00    0.00    0.00    0.00    0.02     0.00    0.00    0.00    0.00    0.00
  138    0.00    0.00    0.00    0.00    0.00    0.00   32.39    0.78    6.83    0.00    0.00    0.00    0.00    0.00    0.02     0.00    0.00    0.00    0.00    0.00
  139    0.00    0.00    0.00    0.00    0.00    0.00   31.55    0.84   10.20    0.00    0.00    0.00    0.00    0.00    0.02     0.00    0.00    0.00    0.00    0.00
  140    8.50    1.62    0.00    0.00    0.00    0.00   39.39    0.10    0.45    1.62    0.00    0.00    0.00    0.00    0.02     0.00    0.00    0.00    0.00    0.41
  141    0.00    0.00    0.00    0.00    0.00    0.00   38.02    1.37    6.67    0.00    0.00    0.00    0.00    0.00    0.02     0.00    0.00    0.00    0.00    0.00
  142    2.40    0.34    0.00    0.00    0.00    0.00   38.94    1.51    3.28    0.34    0.00    0.00    0.00    0.00    0.02     0.00    0.00    0.00    0.00    0.00
  143    0.00    0.00    0.00    0.00    0.00    0.00   37.42    1.52    6.78    0.00    0.00    0.00    0.00    0.00    0.02     0.00    0.00    0.00    0.00    0.00
  144    0.00    0.00    0.00    0.00    0.00    0.00   36.56    0.85    4.97    0.00    0.00    0.00    0.00    0.00    0.02     0.00    0.00    0.00    0.00    0.00
  145    0.00    0.00    0.00    0.00    0.00    0.00   35.41    1.15    7.87    0.00    0.00    0.00    0.00    0.00    0.02     0.00    0.00    0.00    0.00    0.00
  146    0.20    0.03    0.00    0.00    0.00    0.00   35.46    0.16    1.32    0.03    0.00    0.00    0.00    0.00    0.02     0.00    0.00    0.00    0.00    0.00
  147    0.00    0.00    0.00    0.00    0.00    0.00   34.62    0.84    5.33    0.00    0.00    0.00    0.00    0.00    0.02     0.00    0.00    0.00    0.00    0.00
  148    1.70    0.24    0.00    0.00    0.00    0.00   35.08    1.27    3.19    0.24    0.00    0.00    0.00    0.00    0.02     0.00    0.00    0.00    0.00    0.00
  149    1.10    0.16    0.00    0.00    0.00    0.00   35.04    1.13    2.73    0.16    0.00    0.00    0.00    0.00    0.02     0.00    0.00    0.00    0.00    0.00
  150    0.00    0.00    0.00    0.00    0.00    0.00   34.04    1.01    6.31    0.00    0.00    0.00    0.00    0.00    0.00     0.00    0.00    0.00    0.00    0.00
  151    0.00    0.00    0.00    0.00    0.00    0.00   33.18    0.85    7.95    0.00    0.00    0.00    0.00    0.00    0.00     0.00    0.00    0.00    0.00    0.00
    5   14.10    2.42    0.03    0.00    0.00    0.00   33.18   48.75  185.17    2.45    0.00    0.00    0.00    0.00    0.52     0.02    0.00    0.00    0.00    0.41
  152    0.00    0.00    0.00    0.00    0.00    0.00   32.40    0.79    7.42    0.00    0.00    0.00    0.00    0.00    0.00     0.00    0.00    0.00    0.00    0.00
  153    0.00    0.00    0.00    0.00    0.00    0.00   31.70    0.70    7.91    0.00    0.00    0.00    0.00    0.00    0.00     0.00    0.00    0.00    0.00    0.00
  154   36.30   18.54    0.00    0.00    0.00    0.00   49.67    1.46    2.83   18.47    0.00    0.00    0.00    0.00    0.00     0.01    0.00    0.00    0.00    7.34
  155    9.10    1.51    0.00    0.00    0.00    0.00   57.69    0.61    1.35    1.58    0.00    0.00    0.00    0.00    0.00     0.01    0.00    0.00    0.00    0.21
  156    0.40    0.06    0.00    0.00    0.00    0.00   56.26    1.84    4.02    0.06    0.00    0.00    0.00    0.00    0.00     0.01    0.00    0.00    0.00    0.00
  157    0.00    0.00    0.00    0.00    0.00    0.00   52.06    4.20    8.15    0.00    0.00    0.00    0.00    0.00    0.00     0.01    0.00    0.00    0.00    0.00
  158    0.00    0.00    0.00    0.00    0.00    0.00   47.89    4.16    8.48    0.00    0.00    0.00    0.00    0.00    0.00     0.01    0.00    0.00    0.00    0.00
  159    0.00    0.00    0.00    0.00    0.00    0.00   44.76    3.14    7.48    0.00    0.00    0.00    0.00    0.00    0.00     0.00    0.00    0.00    0.00    0.00
  160    0.00    0.00    0.00    0.00    0.00    0.00   41.69    3.07   10.90    0.00    0.00    0.00    0.00    0.00    0.00     0.00    0.00    0.00    0.00    0.00
  161    0.00    0.00    0.00    0.00    0.00    0.00   39.69    1.99    8.37    0.00    0.00    0.00    0.00    0.00    0.00     0.00    0.00    0.00    0.00    0.00
  162    0.00    0.00    0.00    0.00    0.00    0.00   37.95    1.74    8.80    0.00    0.00    0.00    0.00    0.00    0.00     0.00    0.00    0.00    0.00    0.00
  163    0.00    0.00    0.00    0.00    0.00    0.00   36.61    1.34    7.32    0.00    0.00    0.00    0.00    0.00    0.00     0.00    0.00    0.00    0.00    0.00
  164    0.00    0.00    0.00    0.00    0.00    0.00   35.52    1.09    7.26    0.00    0.00    0.00    0.00    0.00    0.00     0.00    0.00    0.00    0.00    0.00
  165    0.00    0.00    0.00    0.00    0.00    0.00   34.56    0.96    6.46    0.00    0.00    0.00    0.00    0.00    0.00     0.00    0.00    0.00    0.00    0.00
  166    0.00    0.00    0.00    0.00    0.00    0.00   33.64    0.92    7.77    0.00    0.00    0.00    0.00    0.00    0.00     0.00    0.00    0.00    0.00    0.00
  167    0.00    0.00    0.00    0.00    0.00    0.00   33.64    0.00    7.02    0.00    0.00    0.00    0.00    0.00    0.00     0.00    0.00    0.00    0.00    0.00
  168    0.00    0.00    0.00    0.00    0.00    0.00   33.64    0.00    8.87    0.00    0.00    0.00    0.00    0.00    0.00     0.00    0.00    0.00    0.00    0.00
  169    0.00    0.00    0.00    0.00    0.00    0.00   33.64    0.00    9.27    0.00    0.00    0.00    0.00    0.00    0.00     0.00    0.00    0.00    0.00    0.00
  170    0.00    0.00    0.00    0.00    0.00    0.00   33.64    0.00    5.88    0.00    0.00    0.00    0.00    0.00    0.00     0.00    0.00    0.00    0.00    0.00
  171    4.40    0.80    0.00    0.00    0.00    0.00   37.76    0.00    1.62    0.81    0.00    0.00    0.00    0.00    0.00     0.01    0.00    0.00    0.00    0.18
  172    1.30    0.19    0.00    0.00    0.00    0.00   38.04    1.04    2.69    0.19    0.00    0.00    0.00    0.00    0.00     0.01    0.00    0.00    0.00    0.00
  173    0.20    0.03    0.00    0.00    0.00    0.00   38.24    0.00    3.03    0.03    0.00    0.00    0.00    0.00    0.00     0.01    0.00    0.00    0.00    0.00
  174    2.60    0.50    0.00    0.00    0.00    0.00   40.05    0.51    1.04    0.50    0.00    0.00    0.00    0.00    0.00     0.01    0.00    0.00    0.00    0.13
  175    0.00    0.00    0.00    0.00    0.00    0.00   40.05    0.00    7.05    0.00    0.00    0.00    0.00    0.00    0.00     0.01    0.00    0.00    0.00    0.00
  176    0.00    0.00    0.00    0.00    0.00    0.00   40.05    0.00    9.43    0.00    0.00    0.00    0.00    0.00    0.00     0.01    0.00    0.00    0.00    0.00
  177    1.70    0.28    0.00    0.00    0.00    0.00   41.13    0.45    0.91    0.29    0.00    0.00    0.00    0.00    0.00     0.01    0.00    0.00    0.00    0.04
  178    0.00    0.00    0.00    0.00    0.00    0.00   41.13    0.00    8.85    0.00    0.00    0.00    0.00    0.00    0.00     0.01    0.00    0.00    0.00    0.00
  179    0.00    0.00    0.00    0.00    0.00    0.00   41.13    0.00    7.28    0.00    0.00    0.00    0.00    0.00    0.00     0.01    0.00    0.00    0.00    0.00
  180    1.10    0.16    0.00    0.00    0.00    0.00   42.22    0.00    0.54    0.16    0.00    0.00    0.00    0.00    0.00     0.01    0.00    0.00    0.00    0.00
  181    0.30    0.04    0.00    0.00    0.00    0.00   41.48    1.04    2.23    0.04    0.00    0.00    0.00    0.00    0.00     0.01    0.00    0.00    0.00    0.00
    6   57.40   22.11    0.03    0.00    0.00    0.00   41.48   31.06  180.22   22.14    0.00    0.00    0.00    0.00    0.00     0.18    0.00    0.02    0.00    7.90
  182   13.10    2.63    0.00    0.00    0.00    0.00   53.19    0.00    0.61    2.63    0.00    0.00    0.00    0.00    0.00     0.05    0.00    0.01    0.00    0.76
  183    2.00    0.28    0.00    0.00    0.00    0.00   54.68    0.49    1.00    0.29    0.00    0.00    0.00    0.00    0.00     0.04    0.00    0.01    0.00    0.00
  184    1.40    0.20    0.00    0.00    0.00    0.00   55.76    0.31    0.63    0.20    0.00    0.00    0.00    0.00    0.00     0.04    0.00    0.00    0.00    0.00
  185    0.70    0.10    0.00    0.00    0.00    0.00   55.54    0.93    1.89    0.10    0.00    0.00    0.00    0.00    0.00     0.03    0.00    0.00    0.00    0.00
  186    0.00    0.00    0.00    0.00    0.00    0.00   55.54    0.00    8.47    0.00    0.00    0.00    0.00    0.00    0.00     0.03    0.00    0.00    0.00    0.00
  187    0.00    0.00    0.00    0.00    0.00    0.00   55.54    0.00    9.50    0.00    0.00    0.00    0.00    0.00    0.00     0.02    0.00    0.00    0.00    0.00
  188    0.00    0.00    0.00    0.00    0.00    0.00   55.54    0.00    8.80    0.00    0.00    0.00    0.00    0.00    0.00     0.02    0.00    0.00    0.00    0.00
  189    0.00    0.00    0.00    0.00    0.00    0.00   55.54    0.00    7.76    0.00    0.00    0.00    0.00    0.00    0.00     0.02    0.00    0.00    0.00    0.00
  190    1.20    0.17    0.00    0.00    0.00    0.00   55.69    1.04    3.92    0.17    0.00    0.00    0.00    0.00    0.00     0.02    0.00    0.00    0.00    0.00
  191    0.40    0.06    0.00    0.00    0.00    0.00   56.10    0.00    2.13    0.06    0.00    0.00    0.00    0.00    0.00     0.01    0.00    0.00    0.00    0.00
  192    0.00    0.00    0.00    0.00    0.00    0.00   56.10    0.00    9.40    0.00    0.00    0.00    0.00    0.00    0.00     0.01    0.00    0.00    0.00    0.00
  193    2.00    0.28    0.00    0.00    0.00    0.00   57.59    0.54    1.09    0.29    0.00    0.00    0.00    0.00    0.00     0.01    0.00    0.00    0.00    0.00
  194   12.30    1.96    0.00    0.00    0.00    0.00   68.78    0.49    0.99    1.96    0.00    0.00    0.00    0.00    0.00     0.05    0.00    0.01    0.00    0.21
  195   21.20    4.96    0.00    0.00    0.00    0.00   86.23    0.36    0.73    4.96    0.00    0.00    0.00    0.00    0.00     0.14    0.00    0.02    0.00    1.94
  196    8.40    1.20    0.00    0.00    0.00    0.00   94.15    0.00    2.10    1.21    0.00    0.00    0.00    0.00    0.00     0.13    0.00    0.02    0.00    0.00
  197   16.70    5.29    0.00    0.00    0.00    0.00  104.95    1.04    2.70    4.64    0.00    0.00    0.00    0.00    0.00     0.21    0.00    0.03    0.00    1.49
  198   15.50    3.26    0.00    0.00    0.00    0.00  117.98    0.89    1.80    3.91    0.00    0.00    0.00    0.00    0.00     0.24    0.00    0.03    0.00    1.05
  199    0.00    0.00    0.00    0.00    0.00    0.00  117.98    0.00    8.10    0.00    0.00    0.00    0.00    0.00    0.00     0.20    0.00    0.02    0.00    0.00
  200    0.00    0.00    0.00    0.00    0.00    0.00  117.98    0.00    6.29    0.00    0.00    0.00    0.00    0.00    0.00     0.16    0.00    0.02    0.00    0.00
  201    0.00    0.00    0.00    0.00    0.00    0.00  117.98    0.00    6.64    0.00    0.00    0.00    0.00    0.00    0.00     0.13    0.00    0.02    0.00    0.00
  202    0.00    0.00    0.00    0.00    0.00    0.00  117.98    0.00    5.79    0.00    0.00    0.00    0.00    0.00    0.00     0.11    0.00    0.01    0.00    0.00
  203    0.00    0.00    0.00    0.00    0.00    0.00  117.98    0.00    4.60    0.00    0.00    0.00    0.00    0.00    0.00     0.09    0.00    0.01    0.00    0.00
  204    0.00    0.00    0.00    0.00    0.00    0.00  117.98    0.00    8.69    0.00    0.00    0.00    0.00    0.00    0.00     0.07    0.00    0.01    0.00    0.00
  205    0.00    0.00    0.00    0.00    0.00    0.00  117.98    0.00    6.99    0.00    0.00    0.00    0.00    0.00    0.00     0.06    0.00    0.01    0.00    0.00
  206   26.90   10.66    0.00    0.00    0.00    0.00  134.57    0.93    1.88   10.66    0.00    0.00    0.00    0.00    0.00     0.29    0.00    0.04    0.00    2.73
  207    0.00    0.00    0.00    0.00    0.00    0.00  134.57    0.00    5.85    0.00    0.00    0.00    0.00    0.00    0.00     0.24    0.00    0.03    0.00    0.00
  208    0.00    0.00    0.00    0.00    0.00    0.00  134.57    0.00    6.75    0.00    0.00    0.00    0.00    0.00    0.00     0.20    0.00    0.02    0.00    0.00
  209    0.90    0.13    0.00    0.00    0.00    0.00  135.49    0.00    2.28    0.13    0.00    0.00    0.00    0.00    0.00     0.17    0.00    0.02    0.00    0.00
  210   47.20   20.06    0.00    0.00    0.00    0.00  163.60    1.04    2.49   20.06    0.01    0.00    0.00    0.00    0.00     0.63    0.00    0.08    0.00    5.28
  211    0.00    0.00    0.00    0.00    0.00    0.00  163.60    0.00   10.99    0.00    0.00    0.00    0.00    0.00    0.00     0.52    0.00    0.06    0.00    0.00
  212    6.30    1.08    0.00    0.00    0.00    0.00  169.62    0.00    1.68    1.08    0.00    0.00    0.00    0.00    0.00     0.45    0.00    0.06    0.00    0.18
    7  176.20   52.33    0.05    0.00    0.00    0.00  169.62    8.07  142.56   52.39    0.02    0.00    0.00    0.00    0.00     4.39    0.01    0.55    0.00   13.64
  213    2.70    0.47    0.00    0.00    0.00    0.00  171.14    1.04    3.03    0.47    0.00    0.00    0.00    0.00    0.00     0.38    0.00    0.05    0.00    0.08
  214    0.00    0.00    0.00    0.00    0.00    0.00  171.14    0.00    8.91    0.00    0.00    0.00    0.00    0.00    0.00     0.31    0.00    0.04    0.00    0.00
  215    0.00    0.00    0.00    0.00    0.00    0.00  171.14    0.00    8.92    0.00    0.00    0.00    0.00    0.00    0.00     0.25    0.00    0.03    0.00    0.00
  216    0.00    0.00    0.00    0.00    0.00    0.00  171.14    0.00    6.72    0.00    0.00    0.00    0.00    0.00    0.00     0.21    0.00    0.03    0.00    0.00
  217    1.20    0.17    0.00    0.00    0.00    0.00  172.31    0.00    5.19    0.17    0.00    0.00    0.00    0.00    0.00     0.18    0.00    0.02    0.00    0.00
  218    0.00    0.00    0.00    0.00    0.00    0.00  172.31    0.00    7.24    0.00    0.00    0.00    0.00    0.00    0.00     0.14    0.00    0.02    0.00    0.00
  219    0.00    0.00    0.00    0.00    0.00    0.00  172.31    0.00    7.46    0.00    0.00    0.00    0.00    0.00    0.00     0.12    0.00    0.01    0.00    0.00
  220    0.80    0.11    0.00    0.00    0.00    0.00  172.08    1.04    3.07    0.12    0.00    0.00    0.00    0.00    0.00     0.10    0.00    0.01    0.00    0.00
  221    1.00    0.14    0.00    0.00    0.00    0.00  173.04    0.00    3.07    0.14    0.00    0.00    0.00    0.00    0.00     0.08    0.00    0.01    0.00    0.00
  222    8.60    4.28    0.00    0.00    0.00    0.00  176.92    1.04    3.02    4.17    0.00    0.00    0.00    0.00    0.00     0.17    0.00    0.02    0.00    1.06
  223    1.00    0.14    0.00    0.00    0.00    0.00  177.93    0.00    3.44    0.25    0.00    0.00    0.00    0.00    0.00     0.14    0.00    0.02    0.00    0.00
  224    0.10    0.01    0.00    0.00    0.00    0.00  178.03    0.00    2.34    0.02    0.00    0.00    0.00    0.00    0.00     0.12    0.00    0.01    0.00    0.00
  225    0.00    0.00    0.00    0.00    0.00    0.00  178.03    0.00    5.94    0.00    0.00    0.00    0.00    0.00    0.00     0.09    0.00    0.01    0.00    0.00
  226    0.00    0.00    0.00    0.00    0.00    0.00  178.03    0.00    9.15    0.00    0.00    0.00    0.00    0.00    0.00     0.08    0.00    0.01    0.00    0.00
  227    0.00    0.00    0.00    0.00    0.00    0.00  178.03    0.00   10.09    0.00    0.00    0.00    0.00    0.00    0.00     0.06    0.00    0.01    0.00    0.00
  228    0.00    0.00    0.00    0.00    0.00    0.00  178.03    0.00    9.79    0.00    0.00    0.00    0.00    0.00    0.00     0.05    0.00    0.01    0.00    0.00
  229    3.80    1.16    0.00    0.00    0.00    0.00  180.15    0.87    1.75    0.97    0.00    0.00    0.00    0.00    0.00     0.07    0.00    0.01    0.00    0.19
  230    1.10    0.16    0.00    0.00    0.00    0.00  180.22    1.04    2.82    0.36    0.00    0.00    0.00    0.00    0.00     0.06    0.00    0.01    0.00    0.00
  231    0.20    0.03    0.00    0.00    0.00    0.00  180.43    0.00    2.94    0.03    0.00    0.00    0.00    0.00    0.00     0.05    0.00    0.01    0.00    0.00
  232    0.00    0.00    0.00    0.00    0.00    0.00  180.43    0.00    5.01    0.00    0.00    0.00    0.00    0.00    0.00     0.04    0.00    0.00    0.00    0.00
  233    0.20    0.03    0.00    0.00    0.00    0.00  180.63    0.00    2.78    0.03    0.00    0.00    0.00    0.00    0.00     0.03    0.00    0.00    0.00    0.00
  234    0.00    0.00    0.00    0.00    0.00    0.00  180.63    0.00   10.28    0.00    0.00    0.00    0.00    0.00    0.00     0.03    0.00    0.00    0.00    0.00
  235    9.10    4.28    0.00    0.00    0.00    0.00  185.85    0.00    2.85    3.42    0.00    0.00    0.00    0.00    0.00     0.12    0.00    0.01    0.00    0.72
  236    0.40    0.06    0.00    0.00    0.00    0.00  186.26    0.00    1.98    0.92    0.00    0.00    0.00    0.00    0.00     0.10    0.00    0.01    0.00    0.00
  237    0.70    0.10    0.00    0.00    0.00    0.00  185.95    1.02    2.05    0.10    0.00    0.00    0.00    0.00    0.00     0.08    0.00    0.01    0.00    0.00
  238    6.40    0.91    0.00    0.00    0.00    0.00  192.27    0.00    3.06    0.91    0.00    0.00    0.00    0.00    0.00     0.09    0.00    0.01    0.00    0.00
  239   24.30    7.85    0.00    0.00   10.83    0.00  197.96    1.74    3.34    7.85    0.00    0.00    0.00    0.00    0.00     0.28    0.00    0.03    0.00    2.07
  240    0.00    0.00    0.00    0.00    2.06    0.00  192.55    3.34    6.41    0.00    0.00    0.00    0.00    0.00    0.00     0.23    0.00    0.03    0.00    0.00
  241    0.00    0.00    0.00    0.00    0.00    0.00  192.55    0.00    6.96    0.00    0.00    0.00    0.00    0.00    0.00     0.19    0.00    0.02    0.00    0.00
  242    0.00    0.00    0.00    0.00    0.00    0.00  192.55    0.00   11.99    0.00    0.00    0.00    0.00    0.00    0.00     0.16    0.00    0.02    0.00    0.00
  243    0.00    0.00    0.00    0.00    0.00    0.00  192.55    0.00    8.24    0.00    0.00    0.00    0.00    0.00    0.00     0.13    0.00    0.02    0.00    0.00
    8   61.60   19.91    0.07    0.00   12.89    0.00  192.55   11.13  169.83   19.98    0.01    0.00    0.00    0.00    0.00     4.15    0.01    0.51    0.00    4.12
  244    0.00    0.00    0.00    0.00    0.00    0.00  192.55    0.00    7.73    0.00    0.00    0.00    0.00    0.00    0.00     0.11    0.00    0.01    0.00    0.00
  245    0.00    0.00    0.00    0.00    0.00    0.00  192.55    0.00    6.34    0.00    0.00    0.00    0.00    0.00    0.00     0.09    0.00    0.01    0.00    0.00
  246    0.00    0.00    0.00    0.00    0.00    0.00  192.55    0.00    5.84    0.00    0.00    0.00    0.00    0.00    0.00     0.07    0.00    0.01    0.00    0.00
  247   12.80    2.36    0.00    0.00    6.29    0.00  196.83    0.90    0.91    2.36    0.00    0.00    0.00    0.00    0.00     0.12    0.00    0.01    0.00    0.53
  248    3.30    0.57    0.00    0.00    3.80    0.00  194.39    2.26    2.34    0.57    0.00    0.00    0.00    0.00    0.00     0.11    0.00    0.01    0.00    0.10
  249    0.00    0.00    0.00    0.00    0.30    0.00  191.00    3.09    5.92    0.01    0.00    0.00    0.00    0.00    0.00     0.09    0.00    0.01    0.00    0.00
  250    0.30    0.04    0.00    0.00    0.00    0.00  191.31    0.00    3.79    0.05    0.00    0.00    0.00    0.00    0.00     0.07    0.00    0.01    0.00    0.00
  251    0.00    0.00    0.00    0.00    0.00    0.00  191.31    0.00    6.40    0.01    0.00    0.00    0.00    0.00    0.00     0.06    0.00    0.01    0.00    0.00
  252    0.00    0.00    0.00    0.00    0.00    0.00  191.31    0.00    7.23    0.01    0.00    0.00    0.00    0.00    0.00     0.05    0.00    0.01    0.00    0.00
  253    0.50    0.07    0.00    0.00    0.00    0.00  191.81    0.00    3.59    0.08    0.00    0.00    0.00    0.00    0.00     0.04    0.00    0.01    0.00    0.00
  254   93.00   64.70    0.00    0.00   19.10    0.00  200.55    2.74    3.27   64.69    0.09    0.00    0.00    0.00    0.00     2.26    0.00    0.28    0.00   12.11
  255    0.10    0.01    0.00    0.00    4.60    0.00  194.68    1.36    2.61    0.04    0.00    0.00    0.00    0.00    0.00     1.86    0.00    0.23    0.00    0.00
  256    2.10    0.59    0.00    0.00    1.20    0.00  193.69    1.83    1.84    0.60    0.00    0.00    0.00    0.00    0.00     1.55    0.00    0.19    0.00    0.29
  257    0.00    0.00    0.00    0.00    0.00    0.00  193.69    0.00    5.10    0.01    0.00    0.00    0.00    0.00    0.00     1.27    0.00    0.16    0.00    0.00
  258    1.50    0.39    0.00    0.00    0.00    0.00  193.89    1.01    2.04    0.40    0.00    0.00    0.00    0.00    0.00     1.06    0.00    0.13    0.00    0.18
  259    0.00    0.00    0.00    0.00    0.00    0.00  193.89    0.00    6.75    0.01    0.00    0.00    0.00    0.00    0.00     0.87    0.00    0.11    0.00    0.00
  260    0.00    0.00    0.00    0.00    0.00    0.00  193.89    0.00    7.42    0.01    0.00    0.00    0.00    0.00    0.00     0.72    0.00    0.09    0.00    0.00
  261    0.80    0.11    0.00    0.00    0.02    0.00  194.19    0.50    0.95    0.13    0.00    0.00    0.00    0.00    0.00     0.59    0.00    0.07    0.00    0.00
  262    0.00    0.00    0.00    0.00    0.00    0.00  194.19    0.00    6.10    0.01    0.00    0.00    0.00    0.00    0.00     0.49    0.00    0.06    0.00    0.00
  263    6.10    0.97    0.00    0.00    3.56    0.00  194.30    2.24    2.31    0.99    0.00    0.00    0.00    0.00    0.00     0.42    0.00    0.05    0.00    0.11
  264    0.00    0.00    0.00    0.00    0.24    0.00  190.74    3.33    6.38    0.01    0.00    0.00    0.00    0.00    0.00     0.35    0.00    0.04    0.00    0.00
  265    0.00    0.00    0.00    0.00    0.00    0.00  190.74    0.00    6.89    0.01    0.00    0.00    0.00    0.00    0.00     0.29    0.00    0.04    0.00    0.00
  266    0.00    0.00    0.00    0.00    0.00    0.00  190.74    0.00    6.07    0.01    0.00    0.00    0.00    0.00    0.00     0.24    0.00    0.03    0.00    0.00
  267    0.00    0.00    0.00    0.00    0.00    0.00  190.74    0.00    6.92    0.01    0.00    0.00    0.00    0.00    0.00     0.20    0.00    0.02    0.00    0.00
  268    2.30    0.48    0.00    0.00    0.00    0.00  191.74    1.04    2.87    0.49    0.00    0.00    0.00    0.00    0.00     0.17    0.00    0.02    0.00    0.15
  269    2.50    0.36    0.00    0.00    0.00    0.00  193.24    1.04    2.42    0.37    0.00    0.00    0.00    0.00    0.00     0.15    0.00    0.02    0.00    0.00
  270    6.70    0.95    0.00    0.00    3.46    0.00  193.17    3.33    4.39    0.97    0.00    0.00    0.00    0.00    0.00     0.14    0.00    0.02    0.00    0.00
  271    0.30    0.04    0.00    0.00    0.00    0.00  193.47    0.00    3.75    0.06    0.00    0.00    0.00    0.00    0.00     0.12    0.00    0.01    0.00    0.00
  272   12.40    5.64    0.00    0.00    4.16    0.00  195.01    1.79    3.44    4.83    0.00    0.00    0.00    0.00    0.00     0.24    0.00    0.03    0.00    0.70
  273    4.60    0.69    0.00    0.00    3.45    0.00  195.35    1.14    2.19    1.52    0.00    0.00    0.00    0.00    0.00     0.22    0.00    0.03    0.00    0.04
    9  149.30   77.98    0.10    0.00   50.18    0.00  195.35   27.62  133.78   78.27    0.10    0.00    0.00    0.01    0.00    14.01    0.02    1.73    0.00   14.20
  274    0.00    0.00    0.00    0.00    0.25    0.00  191.17    3.94    7.54    0.02    0.00    0.00    0.00    0.00    0.00     0.18    0.00    0.02    0.00    0.00
  275    8.80    2.47    0.00    0.00    2.60    0.00  194.81    1.32    2.53    2.49    0.00    0.00    0.00    0.00    0.00     0.21    0.00    0.03    0.00    0.73
  276    0.80    0.11    0.00    0.00    0.43    0.00  192.95    2.24    2.30    0.13    0.00    0.00    0.00    0.00    0.00     0.17    0.00    0.02    0.00    0.00
  277   31.80    7.69    0.00    0.07   16.84    0.00  200.56    1.75    1.76    7.62    0.00    0.00    0.00    0.00    0.00     0.35    0.00    0.04    0.00    2.09
  278  129.20   97.12    0.01    0.18   27.97    0.00  204.44    2.70    3.18   71.35    0.06    0.00    0.00    0.00    0.00     3.18    0.00    0.39    0.00   16.96
  279   44.30   26.16    0.01    0.31   20.62    0.00  202.40    1.54    2.96   52.62    0.17    0.00    0.00    0.00    0.00     3.48    0.00    0.43    0.00    4.94
  280   11.40    6.14    0.01    0.44    9.54    0.00  197.59    1.55    1.55    6.60    0.01    0.00    0.00    0.00    0.00     2.99    0.00    0.37    0.00    0.73
  281    3.90    0.56    0.01    0.56    4.45    0.00  195.56    1.37    1.37    1.15    0.00    0.00    0.00    0.00    0.00     2.47    0.00    0.31    0.00    0.00
  282    0.00    0.00    0.01    0.68    0.87    0.00  191.36    3.33    6.38    0.71    0.00    0.00    0.00    0.00    0.00     2.04    0.00    0.25    0.00    0.00
  283    0.00    0.00    0.01    0.79    0.00    0.00  191.36    0.00    6.89    0.82    0.00    0.00    0.00    0.00    0.00     1.68    0.00    0.21    0.00    0.00
  284    0.00    0.00    0.01    0.88    0.00    0.00  191.36    0.00    5.88    0.91    0.00    0.00    0.00    0.00    0.00     1.38    0.00    0.17    0.00    0.00
  285    0.00    0.00    0.01    0.97    0.00    0.00  191.36    0.00    6.91    1.00    0.00    0.00    0.00    0.00    0.00     1.14    0.00    0.14    0.00    0.00
  286    1.50    0.21    0.01    1.05    0.00    0.00  192.05    0.84    1.68    1.30    0.00    0.00    0.00    0.00    0.00     0.94    0.00    0.12    0.00    0.00
  287   21.40    9.37    0.01    1.13    7.16    0.00  196.05    2.06    2.07    8.87    0.00    0.00    0.00    0.00    0.00     0.96    0.00    0.12    0.00    1.83
  288   44.60    8.45    0.01    1.25   28.60    0.00  206.45    0.96    1.84   11.40    0.01    0.00    0.00    0.00    0.00     0.98    0.00    0.12    0.00    1.88
  289   29.80    9.59    0.01    1.39   23.64    0.00  203.00    2.26    2.34   11.01    0.01    0.00    0.00    0.00    0.00     1.00    0.00    0.12    0.00    2.10
  290    0.00    0.00    0.01    1.52    6.29    0.00  194.00    2.69    5.15    1.56    0.00    0.00    0.00    0.00    0.00     0.83    0.00    0.10    0.00    0.00
  291    0.00    0.00    0.01    1.64    0.03    0.00  190.80    3.17    6.06    1.69    0.00    0.00    0.00    0.00    0.00     0.68    0.00    0.08    0.00    0.00
  292    0.00    0.00    0.01    1.75    0.00    0.00  190.80    0.00    7.07    1.80    0.00    0.00    0.00    0.00    0.00     0.56    0.00    0.07    0.00    0.00
  293    0.00    0.00    0.01    1.85    0.00    0.00  190.80    0.00    8.43    1.90    0.00    0.00    0.00    0.00    0.00     0.46    0.00    0.06    0.00    0.00
  294    0.40    0.06    0.01    1.94    0.00    0.00  191.21    0.00    1.90    2.04    0.00    0.00    0.00    0.00    0.00     0.38    0.00    0.05    0.00    0.00
  295    0.00    0.00    0.01    2.02    0.00    0.00  191.21    0.00    8.78    2.07    0.00    0.00    0.00    0.00    0.00     0.31    0.00    0.04    0.00    0.00
  296   35.80   17.59    0.01    2.10   11.68    0.00  196.82    3.25    4.23   19.69    0.02    0.00    0.00    0.00    0.00     0.65    0.00    0.08    0.00    3.68
  297   15.60    4.03    0.01    2.19   10.32    0.00  196.92    2.56    2.90    5.88    0.00    0.00    0.00    0.00    0.00     0.60    0.00    0.07    0.00    0.60
  298   37.60   22.58    0.01    2.29   12.93    0.00  198.95    1.66    3.17   25.37    0.03    0.00    0.00    0.00    0.00     0.99    0.00    0.12    0.00    4.60
  299   14.40    3.05    0.01    2.40   11.69    0.00  197.64    2.43    2.66    5.50    0.00    0.00    0.00    0.00    0.00     0.87    0.00    0.11    0.00    0.63
  300    0.00    0.00    0.01    2.49    2.56    0.00  191.96    3.12    5.96    2.56    0.00    0.00    0.00    0.00    0.00     0.72    0.00    0.09    0.00    0.00
  301    0.00    0.00    0.01    2.58    0.00    0.00  191.96    0.00    7.73    2.64    0.00    0.00    0.00    0.00    0.00     0.59    0.00    0.07    0.00    0.00
  302    0.00    0.00    0.01    2.65    0.00    0.00  191.96    0.00    6.77    2.72    0.00    0.00    0.00    0.00    0.00     0.49    0.00    0.06    0.00    0.00
  303    0.00    0.00    0.01    2.72    0.00    0.00  191.96    0.00    6.34    2.78    0.00    0.00    0.00    0.00    0.00     0.40    0.00    0.05    0.00    0.00
  304    0.00    0.00    0.01    2.77    0.00    0.00  191.96    0.00    6.64    2.84    0.00    0.00    0.00    0.00    0.00     0.33    0.00    0.04    0.00    0.00
   10  431.30  215.18    0.25   42.62  198.47    0.00  191.96   44.72  140.96  259.05    0.31    0.00    0.00    0.03    0.00    32.02    0.04    3.95    0.00   40.77
  305    0.00    0.00    0.01    2.82    0.00    0.00  191.96    0.00    6.94    2.89    0.00    0.00    0.00    0.00    0.00     0.27    0.00    0.03    0.00    0.00
  306    5.00    0.71    0.01    2.86    1.39    0.00  193.94    1.66    1.66    3.64    0.00    0.00    0.00    0.00    0.00     0.24    0.00    0.03    0.00    0.00
  307    3.10    0.44    0.01    2.90    1.45    0.00  193.08    2.56    2.90    3.41    0.00    0.00    0.00    0.00    0.00     0.20    0.00    0.02    0.00    0.00
  308    3.20    0.46    0.01    2.93    0.92    0.00  193.15    2.25    2.31    3.46    0.00    0.00    0.00    0.00    0.00     0.17    0.00    0.02    0.00    0.00
  309    1.50    0.21    0.01    2.95    0.00    0.00  193.64    1.04    2.19    3.24    0.00    0.00    0.00    0.00    0.00     0.14    0.00    0.02    0.00    0.00
  310   17.70    3.59    0.01    2.99   10.61    0.00  196.92    2.69    3.15    6.65    0.00    0.00    0.00    0.00    0.00     0.18    0.00    0.02    0.00    0.43
  311    0.90    0.13    0.01    3.01    2.16    0.00  194.86    0.81    1.55    3.22    0.00    0.00    0.00    0.00    0.00     0.15    0.00    0.02    0.00    0.00
  312   17.10    3.74    0.01    3.05   10.38    0.00  196.99    2.52    2.83    6.59    0.00    0.00    0.00    0.00    0.00     0.19    0.00    0.02    0.00    0.71
  313    4.30    0.61    0.01    3.09    4.42    0.00  195.54    1.38    2.63    4.05    0.00    0.00    0.00    0.00    0.00     0.17    0.00    0.02    0.00    0.00
  314    0.00    0.00    0.01    3.11    0.38    0.00  191.46    3.70    7.07    3.19    0.00    0.00    0.00    0.00    0.00     0.14    0.00    0.02    0.00    0.00
  315    0.00    0.00    0.01    3.14    0.00    0.00  191.46    0.00    6.09    3.22    0.00    0.00    0.00    0.00    0.00     0.11    0.00    0.01    0.00    0.00
  316    0.00    0.00    0.01    3.15    0.00    0.00  191.46    0.00    6.70    3.23    0.00    0.00    0.00    0.00    0.00     0.09    0.00    0.01    0.00    0.00
  317    0.00    0.00    0.01    3.16    0.00    0.00  191.46    0.00    5.88    3.24    0.00    0.00    0.00    0.00    0.00     0.08    0.00    0.01    0.00    0.00
  318    0.00    0.00    0.01    3.17    0.00    0.00  191.46    0.00    5.63    3.25    0.00    0.00    0.00    0.00    0.00     0.06    0.00    0.01    0.00    0.00
  319  108.40   82.70    0.01    3.19   16.58    0.00  199.98    2.21    2.24   75.95    0.11    0.00    0.00    0.00    0.00     1.96    0.00    0.24    0.00   14.39
  320    2.90    0.64    0.01    3.21    5.67    0.00  195.24    2.22    2.25   13.97    0.08    0.00    0.00    0.00    0.00     1.64    0.00    0.20    0.00    0.23
  321    0.00    0.00    0.01    3.23    0.89    0.00  190.65    3.70    7.07    3.32    0.00    0.00    0.00    0.00    0.00     1.35    0.00    0.17    0.00    0.00
  322   15.30    8.71    0.01    3.25    2.33    0.00  195.24    0.78    1.48   12.02    0.01    0.00    0.00    0.00    0.00     1.25    0.00    0.15    0.00    2.26
  323    0.00    0.00    0.01    3.26    0.17    0.00  191.61    3.46    6.61    3.37    0.00    0.00    0.00    0.00    0.00     1.03    0.00    0.13    0.00    0.00
  324    0.00    0.00    0.01    3.26    0.00    0.00  191.61    0.00    5.80    3.35    0.00    0.00    0.00    0.00    0.00     0.85    0.00    0.10    0.00    0.00
  325   41.00   22.08    0.01    3.28   12.43    0.00  198.07    2.32    2.44   24.16    0.02    0.00    0.00    0.00    0.00     1.07    0.00    0.13    0.00    4.91
  326   26.30   13.26    0.01    3.31   12.58    0.00  199.38    1.08    1.08   17.95    0.03    0.00    0.00    0.00    0.00     1.09    0.00    0.13    0.00    2.86
  327    0.20    0.03    0.01    3.33    3.45    0.00  195.02    1.10    2.11    3.47    0.00    0.00    0.00    0.00    0.00     0.90    0.00    0.11    0.00    0.00
  328    0.00    0.00    0.01    3.35    0.27    0.00  191.17    3.58    6.85    3.45    0.00    0.00    0.00    0.00    0.00     0.74    0.00    0.09    0.00    0.00
  329    0.00    0.00    0.01    3.36    0.00    0.00  191.17    0.00    7.00    3.46    0.00    0.00    0.00    0.00    0.00     0.61    0.00    0.08    0.00    0.00
  330    0.00    0.00    0.01    3.37    0.00    0.00  191.17    0.00    6.31    3.47    0.00    0.00    0.00    0.00    0.00     0.50    0.00    0.06    0.00    0.00
  331    0.00    0.00    0.01    3.37    0.00    0.00  191.17    0.00    7.52    3.47    0.00    0.00    0.00    0.00    0.00     0.42    0.00    0.05    0.00    0.00
  332    0.00    0.00    0.01    3.37    0.00    0.00  191.17    0.00    7.50    3.47    0.00    0.00    0.00    0.00    0.00     0.34    0.00    0.04    0.00    0.00
  333    0.00    0.00    0.01    3.36    0.00    0.00  191.17    0.00    6.07    3.46    0.00    0.00    0.00    0.00    0.00     0.28    0.00    0.03    0.00    0.00
  334    0.00    0.00    0.01    3.35    0.00    0.00  191.17    0.00    6.21    3.45    0.00    0.00    0.00    0.00    0.00     0.23    0.00    0.03    0.00    0.00
   11  246.90  137.32    0.31   95.18   86.08    0.00  191.17   39.05  136.09  235.06    0.26    0.00    0.00    0.01    0.00    16.49    0.02    2.03    0.00   25.80
  335   17.70   11.29    0.01    3.34    2.71    0.00  195.45    0.72    1.38   14.40    0.01    0.00    0.00    0.00    0.00     0.36    0.00    0.04    0.00    3.18
  336    0.00    0.00    0.01    3.32    0.32    0.00  192.00    3.14    6.00    3.75    0.00    0.00    0.00    0.00    0.00     0.30    0.00    0.04    0.00    0.00
  337    0.00    0.00    0.01    3.30    0.00    0.00  192.00    0.00    6.29    3.40    0.00    0.00    0.00    0.00    0.00     0.25    0.00    0.03    0.00    0.00
  338    0.00    0.00    0.01    3.28    0.00    0.00  192.00    0.00    5.42    3.38    0.00    0.00    0.00    0.00    0.00     0.20    0.00    0.02    0.00    0.00
  339    0.00    0.00    0.01    3.25    0.00    0.00  192.00    0.00    5.32    3.35    0.00    0.00    0.00    0.00    0.00     0.17    0.00    0.02    0.00    0.00
  340    0.00    0.00    0.01    3.22    0.00    0.00  192.00    0.00    4.85    3.32    0.00    0.00    0.00    0.00    0.00     0.14    0.00    0.02    0.00    0.00
  341    0.00    0.00    0.01    3.19    0.00    0.00  192.00    0.00    5.44    3.29    0.00    0.00    0.00    0.00    0.00     0.11    0.00    0.01    0.00    0.00
  342    0.00    0.00    0.01    3.15    0.00    0.00  192.00    0.00    5.97    3.26    0.00    0.00    0.00    0.00    0.00     0.09    0.00    0.01    0.00    0.00
  343    0.00    0.00    0.01    3.12    0.00    0.00  192.00    0.00    5.22    3.22    0.00    0.00    0.00    0.00    0.00     0.08    0.00    0.01    0.00    0.00
  344    0.00    0.00    0.01    3.08    0.00    0.00  192.00    0.00    6.36    3.18    0.00    0.00    0.00    0.00    0.00     0.06    0.00    0.01    0.00    0.00
  345    0.00    0.00    0.01    3.04    0.00    0.00  192.00    0.00    4.73    3.14    0.00    0.00    0.00    0.00    0.00     0.05    0.00    0.01    0.00    0.00
  346    0.00    0.00    0.01    3.00    0.00    0.00  192.00    0.00    4.93    3.10    0.00    0.00    0.00    0.00    0.00     0.04    0.00    0.01    0.00    0.00
  347    0.00    0.00    0.01    2.96    0.00    0.00  192.00    0.00    4.82    3.06    0.00    0.00    0.00    0.00    0.00     0.04    0.00    0.00    0.00    0.00
  348    0.00    0.00    0.01    2.91    0.00    0.00  192.00    0.00    5.19    3.02    0.00    0.00    0.00    0.00    0.00     0.03    0.00    0.00    0.00    0.00
  349    0.00    0.00    0.01    2.87    0.00    0.00  192.00    0.00    4.73    2.97    0.00    0.00    0.00    0.00    0.00     0.02    0.00    0.00    0.00    0.00
  350    0.00    0.00    0.01    2.82    0.00    0.00  192.00    0.00    5.41    2.93    0.00    0.00    0.00    0.00    0.00     0.02    0.00    0.00    0.00    0.00
  351    0.80    0.11    0.01    2.78    0.00    0.00  191.77    1.04    2.18    2.99    0.00    0.00    0.00    0.00    0.00     0.02    0.00    0.00    0.00    0.00
  352   29.00   13.09    0.01    2.74   10.01    0.00  197.42    1.92    1.92   15.93    0.02    0.00    0.00    0.00    0.00     0.22    0.00    0.03    0.00    3.03
  353    0.00    0.00    0.01    2.71    2.36    0.00  192.38    2.68    5.11    2.82    0.00    0.00    0.00    0.00    0.00     0.18    0.00    0.02    0.00    0.00
  354    7.10    1.25    0.01    2.68    2.76    0.00  195.25    0.94    1.80    4.04    0.00    0.00    0.00    0.00    0.00     0.16    0.00    0.02    0.00    0.24
  355   69.90   28.06    0.01    2.70   32.15    0.00  207.93    1.02    1.94   28.80    0.02    0.00    0.00    0.00    0.00     0.58    0.00    0.07    0.00    5.75
  356   43.70   19.12    0.01    2.75   27.53    0.00  205.45    1.50    1.50   20.81    0.02    0.00    0.00    0.00    0.00     0.75    0.00    0.09    0.00    4.20
  357   18.40    6.31    0.01    2.81   17.25    0.00  201.12    1.36    1.37   12.46    0.02    0.00    0.00    0.00    0.00     0.71    0.00    0.09    0.00    1.49
  358    7.40    1.14    0.01    2.88    9.48    0.00  198.22    0.90    1.72    4.14    0.00    0.00    0.00    0.00    0.00     0.60    0.00    0.07    0.00    0.09
  359    0.00    0.00    0.01    2.95    2.24    0.00  193.21    2.76    5.27    3.06    0.00    0.00    0.00    0.00    0.00     0.49    0.00    0.06    0.00    0.00
  360    0.00    0.00    0.01    3.00    0.00    0.00  193.21    0.00    5.99    3.11    0.00    0.00    0.00    0.00    0.00     0.41    0.00    0.05    0.00    0.00
  361    0.00    0.00    0.01    3.05    0.00    0.00  193.21    0.00    4.88    3.16    0.00    0.00    0.00    0.00    0.00     0.34    0.00    0.04    0.00    0.00
  362    0.00    0.00    0.01    3.08    0.00    0.00  193.21    0.00    6.58    3.20    0.00    0.00    0.00    0.00    0.00     0.28    0.00    0.03    0.00    0.00
  363    0.00    0.00    0.01    3.11    0.00    0.00  193.21    0.00    5.02    3.23    0.00    0.00    0.00    0.00    0.00     0.23    0.00    0.03    0.00    0.00
  364    0.00    0.00    0.01    3.14    0.00    0.00  193.21    0.00    5.82    3.25    0.00    0.00    0.00    0.00    0.00     0.19    0.00    0.02    0.00    0.00
  365    0.00    0.00    0.01    3.15    0.00    0.00  193.21    0.00    8.31    3.27    0.00    0.00    0.00    0.00    0.00     0.15    0.00    0.02    0.00    0.00
   12  194.00   80.38    0.30   93.37  106.79    0.00  193.21   17.98  141.43  177.06    0.09    0.00    0.00    0.02    0.00     7.26    0.01    0.89    0.00   17.97

 2001 1429.70  630.60    1.17  231.17  454.42    0.00  193.21  374.56 1935.02  869.39    0.79    0.01    0.00    0.07   20.06    78.96    0.10    9.75    0.00  131.57
1
    SWAT Sep 7    VER 2018/Rev 670                                                  

    General Input/Output section (file.cio):                                        
    02/05/2024 12:00:00 AM ARCGIS-SWAT interface AV                                 
                                                                                    
    FINAL VALUES

1
    SWAT Sep 7    VER 2018/Rev 670                                                  

    General Input/Output section (file.cio):                                        
    02/05/2024 12:00:00 AM ARCGIS-SWAT interface AV                                 
                                                                                    
                                            Average Plant Values (kg/ha)

  HRU       1 SUB   1 BERM  Yld =  2088.0 BIOM =   2965.4

    HRU STATISTICS

                AVE ANNUAL VALUES

   HRU  SUB  SOIL       AREAkm2    CN     AWCmm   USLE_LS  IRRmm  AUTONkh AUTOPkh  MIXEF PRECmm SURQGENmm   GWQmm    ETmm   SEDth  NO3kgh  ORGNkgh BIOMth   YLDth  SURQmm
      1   1   Habitati   .830E+03   86.22  195.00    0.56    0.00  350.00    0.00    0.20 1429.70  630.60  232.34  374.56    0.79    0.01   78.96    2.97    2.09  630.60



                AVE MONTHLY BASIN VALUES
                   SNOW                      WATER               SED
  MON     RAIN     FALL   SURF Q    LAT Q    YIELD       ET    YIELD      PET
          (MM)     (MM)     (MM)     (MM)     (MM)     (MM)   (T/HA)     (MM)
    1     0.00     0.00     0.00     0.00     0.00     0.00     0.00   169.80
    2     0.00     0.00     0.00     0.00     0.00     0.00     0.00   164.56
    3     0.00     0.00     0.00     0.00     0.00    57.42     0.00   186.24
    4    98.90     0.00    22.96     0.02    22.99    88.77     0.00   184.37
    5    14.10     0.00     2.42     0.03     2.45    48.75     0.00   185.17
    6    57.40     0.00    22.11     0.03    22.14    31.06     0.00   180.22
    7   176.20     0.00    52.33     0.05    52.39     8.07     0.02   142.56
    8    61.60     0.00    19.91     0.07    19.98    11.13     0.01   169.83
    9   149.30     0.00    77.98     0.10    78.27    27.62     0.10   133.78
   10   431.30     0.00   215.18     0.25   259.05    44.72     0.31   140.96
   11   246.90     0.00   137.32     0.31   235.06    39.05     0.26   136.09
   12   194.00     0.00    80.38     0.30   177.06    17.98     0.09   141.43

     AVE ANNUAL BASIN STRESS DAYS
               WATER STRESS DAYS =    13.94
               TEMPERATURE STRESS DAYS =     7.00
               NITROGEN STRESS DAYS =    69.17
               PHOSPHORUS STRESS DAYS =     0.00
               AERATION STRESS DAYS =     0.00
1
    SWAT Sep 7    VER 2018/Rev 670                                                  

    General Input/Output section (file.cio):                                        
    02/05/2024 12:00:00 AM ARCGIS-SWAT interface AV                                 
                                                                                    
         AVE ANNUAL BASIN VALUES

              PRECIP =   1429.7 MM
              SNOW FALL =    0.00 MM
              SNOW MELT =     0.00 MM
              SUBLIMATION =     0.00 MM
              SURFACE RUNOFF Q =   630.60 MM
              LATERAL SOIL Q =    1.17 MM
              TILE Q =     0.00 MM
              GROUNDWATER (SHAL AQ) Q =   231.17 MM
              GROUNDWATER (DEEP AQ) Q =     6.46 MM
              REVAP (SHAL AQ => SOIL/PLANTS) =   38.70 MM
              DEEP AQ RECHARGE =    17.13 MM
              TOTAL AQ RECHARGE =  342.53 MM
              TOTAL WATER YLD =   869.39 MM
              PERCOLATION OUT OF SOIL =  454.42 MM
              ET =    374.6 MM
              PET =   1935.0MM
              TRANSMISSION LOSSES =     0.00 MM
              SEPTIC INFLOW =       0.00 MM
              TOTAL SEDIMENT LOADING =      0.79 T/HA
              TILE FROM IMPOUNDED WATER =     0.000 (MM)
              EVAPORATION FROM IMPOUNDED WATER =     0.000 (MM)
              SEEPAGE INTO SOIL FROM IMPOUNDED WATER =    0.000 (MM)
              OVERFLOW FROM IMPOUNDED WATER =    0.000 (MM)
1
    SWAT Sep 7    VER 2018/Rev 670                                                  

    General Input/Output section (file.cio):                                        
    02/05/2024 12:00:00 AM ARCGIS-SWAT interface AV                                 
                                                                                    
              AVE ANNUAL BASIN VALUES


              NUTRIENTS
                   ORGANIC N =    78.957 (KG/HA)
                   ORGANIC P =     9.754 (KG/HA)
                   NO3 YIELD (SQ) =     0.007 (KG/HA)
                   NO3 YIELD (LAT) =    0.000 (KG/HA)
                   NO3 YIELD (TILE) =    0.000 (KG/HA)
                   SOLP YIELD (TILE) =    0.000(KG/HA)
                   SOLP YIELD (SURF INLET RISER) =    0.000 (KG/HA)
                   SOL P YIELD =    0.100 (KG/HA)
                   NO3 LEACHED =     0.071 (KG/HA)
                   P LEACHED =     0.186 (KG/HA)
                   N UPTAKE =    20.057 (KG/HA)
                   P UPTAKE =    5.659 (KG/HA)
                   NO3 YIELD (GWQ) =     0.001 (KG/HA)
                   ACTIVE TO SOLUTION P FLOW =        21.475 (KG/HA)
                   ACTIVE TO STABLE P FLOW =        78.038 (KG/HA)
                   N FERTILIZER APPLIED =   350.000 (KG/HA)
                   P FERTILIZER APPLIED =     0.000 (KG/HA)
                   N FIXATION =     0.000 (KG/HA)
                   DENITRIFICATION =   399.034 (KG/HA)
                   HUMUS MIN ON ACTIVE ORG N =    29.710 (KG/HA)
                   ACTIVE TO STABLE ORG N =    -2.409 (KG/HA)
                   HUMUS MIN ON ACTIVE ORG P =    5.093 (KG/HA)
                   MIN FROM FRESH ORG N =    3.236 (KG/HA)
                   MIN FROM FRESH ORG P =    0.913 (KG/HA)
                   NO3 IN RAINFALL =     0.000 (KG/HA)
                   INITIAL NO3 IN SOIL =      36.907 (KG/HA)
                   FINAL NO3 IN SOIL =         0.037 (KG/HA)
                   INITIAL ORG N IN SOIL =   16500.000 (KG/HA)
                   FINAL ORG N IN SOIL =     16392.034 (KG/HA)
                   INITIAL MIN P IN SOIL =    3423.068 (KG/HA)
                   FINAL MIN P IN SOIL =      3407.248 (KG/HA)
                   INITIAL ORG P IN SOIL =    2021.250 (KG/HA)
                   FINAL ORG P IN SOIL =    2006.715 (KG/HA)
                   NO3 IN FERT =   350.000 (KG/HA)
                   AMMONIA IN FERT =     0.000 (KG/HA)
                   ORG N IN FERT =     0.000 (KG/HA)
                   MINERAL P IN FERT =     0.000 (KG/HA)
                   ORG P IN FERT =     0.000 (KG/HA)
                   N REMOVED IN YIELD =    16.046 (KG/HA)
                   P REMOVED IN YIELD =     4.527 (KG/HA)
                   AMMONIA VOLATILIZATION =     0.000 (KG/HA)
                   AMMONIA NITRIFICATION =      0.000 (KG/HA)
                   NO3 EVAP-LAYER 2 TO 1 =    0.002

                   DIE-GRO P Q =           0.0 (No/M2)
                   DIE-GRO LP Q =           0.0 (No/M2)
                   DIE-GRO P SED =          0.0 (No/M2)
                   DIE-GRO LP SED =          0.0 (No/M2)
                   BACT P RUNOFF =          0.0 (No/M2)
                   BACT LP RUNOFF =          0.0 (No/M2)
                   BACT P SEDIMENT =          0.0 (No/M2)
                   BACT LP SEDIMENT =          0.0 (No/M2)
                   BACT P INCORP =          0.0 (No/M2)
                   BACT LP INCORP =          0.0 (No/M2)

                   NITRATE SEPTIC =         0.00 (kg/ha)
                   AMMONIA SEPTIC =         0.00 (kg/ha)
                   ORG N SEPTIC =         0.00 (kg/ha)
                   FRESH ORGN SEPTIC =         0.00 (kg/ha)
                   ORG P SEPTIC =         0.00 (kg/ha)
                   FRESH ORGP SEPTIC =         0.00 (kg/ha)
                   SOL P SEPTIC =         0.00 (kg/ha)
                   BOD SEPTIC =         0.00 (kg/ha)
