1
    SWAT Sep 7    VER 2018/Rev 670                                                                       0/ 0/   0      0: 0: 0

    General Input/Output section (file.cio):                                        
    02/05/2024 12:00:00 AM ARCGIS-SWAT interface AV                                 
                                                                                    
         Number of years in run:    1
         Area of watershed:      830.234 km2
1
    SWAT Sep 7    VER 2018/Rev 670                                                  

    General Input/Output section (file.cio):                                        
    02/05/2024 12:00:00 AM ARCGIS-SWAT interface AV                                 
                                                                                    
Annual Summary for Watershed in year    1 of simulation

UNIT                                    PERCO    TILE                           WATER     SED     NO3     NO3     NO3     NO3        N       P       P
TIME     PREC    SURQ    LATQ     GWQ    LATE       Q     SW       ET     PET   YIELD   YIELD    SURQ    LATQ    PERC    CROP  ORGANIC SOLUBLE ORGANIC TILENO3
         (mm)    (mm)    (mm)    (mm)    (mm)    (mm)    (mm)    (mm)    (mm)    (mm)   (t/ha)  ------------------(kg nutrient/ha)-------------------- (kg/ha)
    1    0.00    0.00    0.00    0.00    0.00    0.00  131.14    0.00    5.10    0.00    0.00    0.00    0.00    0.00    0.00     0.00    0.00    0.00    0.00    0.00
    2    0.00    0.00    0.00    0.00    0.00    0.00  131.14    0.00    7.03    0.00    0.00    0.00    0.00    0.00    0.00     0.00    0.00    0.00    0.00    0.00
    3    0.00    0.00    0.00    0.00    0.00    0.00  131.14    0.00    5.78    0.00    0.00    0.00    0.00    0.00    0.00     0.00    0.00    0.00    0.00    0.00
    4    0.00    0.00    0.00    0.00    0.00    0.00  131.14    0.00    5.32    0.00    0.00    0.00    0.00    0.00    0.00     0.00    0.00    0.00    0.00    0.00
    5    0.00    0.00    0.00    0.00    0.00    0.00  131.14    0.00    5.46    0.00    0.00    0.00    0.00    0.00    0.00     0.00    0.00    0.00    0.00    0.00
    6    0.00    0.00    0.00    0.00    0.00    0.00  131.14    0.00    5.57    0.00    0.00    0.00    0.00    0.00    0.00     0.00    0.00    0.00    0.00    0.00
    7    0.00    0.00    0.00    0.00    0.00    0.00  131.14    0.00    5.73    0.00    0.00    0.00    0.00    0.00    0.00     0.00    0.00    0.00    0.00    0.00
    8    0.00    0.00    0.00    0.00    0.00    0.00  131.14    0.00    5.54    0.00    0.00    0.00    0.00    0.00    0.00     0.00    0.00    0.00    0.00    0.00
    9    0.00    0.00    0.00    0.00    0.00    0.00  131.14    0.00    5.23    0.00    0.00    0.00    0.00    0.00    0.00     0.00    0.00    0.00    0.00    0.00
   10    0.00    0.00    0.00    0.00    0.00    0.00  131.14    0.00    6.24    0.00    0.00    0.00    0.00    0.00    0.00     0.00    0.00    0.00    0.00    0.00
   11    0.00    0.00    0.00    0.00    0.00    0.00  131.14    0.00    5.05    0.00    0.00    0.00    0.00    0.00    0.00     0.00    0.00    0.00    0.00    0.00
   12    0.00    0.00    0.00    0.00    0.00    0.00  131.14    0.00    5.21    0.00    0.00    0.00    0.00    0.00    0.00     0.00    0.00    0.00    0.00    0.00
   13    0.00    0.00    0.00    0.00    0.00    0.00  131.14    0.00    4.88    0.00    0.00    0.00    0.00    0.00    0.00     0.00    0.00    0.00    0.00    0.00
   14    0.00    0.00    0.00    0.00    0.00    0.00  131.14    0.00    5.65    0.00    0.00    0.00    0.00    0.00    0.00     0.00    0.00    0.00    0.00    0.00
   15    0.00    0.00    0.00    0.00    0.00    0.00  131.14    0.00    5.55    0.00    0.00    0.00    0.00    0.00    0.00     0.00    0.00    0.00    0.00    0.00
   16    0.00    0.00    0.00    0.00    0.00    0.00  131.14    0.00    5.96    0.00    0.00    0.00    0.00    0.00    0.00     0.00    0.00    0.00    0.00    0.00
   17    0.00    0.00    0.00    0.00    0.00    0.00  131.14    0.00    4.90    0.00    0.00    0.00    0.00    0.00    0.00     0.00    0.00    0.00    0.00    0.00
   18    0.00    0.00    0.00    0.00    0.00    0.00  131.14    0.00    5.33    0.00    0.00    0.00    0.00    0.00    0.00     0.00    0.00    0.00    0.00    0.00
   19    0.00    0.00    0.00    0.00    0.00    0.00  131.14    0.00    4.85    0.00    0.00    0.00    0.00    0.00    0.00     0.00    0.00    0.00    0.00    0.00
   20    0.00    0.00    0.00    0.00    0.00    0.00  131.14    0.00    4.74    0.00    0.00    0.00    0.00    0.00    0.00     0.00    0.00    0.00    0.00    0.00
   21    0.00    0.00    0.00    0.00    0.00    0.00  131.14    0.00    6.45    0.00    0.00    0.00    0.00    0.00    0.00     0.00    0.00    0.00    0.00    0.00
   22    0.00    0.00    0.00    0.00    0.00    0.00  131.14    0.00    6.66    0.00    0.00    0.00    0.00    0.00    0.00     0.00    0.00    0.00    0.00    0.00
   23    0.00    0.00    0.00    0.00    0.00    0.00  131.14    0.00    4.79    0.00    0.00    0.00    0.00    0.00    0.00     0.00    0.00    0.00    0.00    0.00
   24    0.00    0.00    0.00    0.00    0.00    0.00  131.14    0.00    5.14    0.00    0.00    0.00    0.00    0.00    0.00     0.00    0.00    0.00    0.00    0.00
   25    0.00    0.00    0.00    0.00    0.00    0.00  131.14    0.00    6.32    0.00    0.00    0.00    0.00    0.00    0.00     0.00    0.00    0.00    0.00    0.00
   26    0.00    0.00    0.00    0.00    0.00    0.00  131.14    0.00    5.60    0.00    0.00    0.00    0.00    0.00    0.00     0.00    0.00    0.00    0.00    0.00
   27    0.00    0.00    0.00    0.00    0.00    0.00  131.14    0.00    5.04    0.00    0.00    0.00    0.00    0.00    0.00     0.00    0.00    0.00    0.00    0.00
   28    0.00    0.00    0.00    0.00    0.00    0.00  131.14    0.00    5.10    0.00    0.00    0.00    0.00    0.00    0.00     0.00    0.00    0.00    0.00    0.00
   29    0.00    0.00    0.00    0.00    0.00    0.00  131.14    0.00    5.02    0.00    0.00    0.00    0.00    0.00    0.00     0.00    0.00    0.00    0.00    0.00
   30    0.00    0.00    0.00    0.00    0.00    0.00  131.14    0.00    5.34    0.00    0.00    0.00    0.00    0.00    0.00     0.00    0.00    0.00    0.00    0.00
   31    0.00    0.00    0.00    0.00    0.00    0.00  131.14    0.00    5.23    0.00    0.00    0.00    0.00    0.00    0.00     0.00    0.00    0.00    0.00    0.00
    1    0.00    0.00    0.00    0.00    0.00    0.00  131.14    0.00  169.80    0.00    0.00    0.00    0.00    0.00    0.00     0.00    0.00    0.00    0.00    0.00
   32    0.00    0.00    0.00    0.00    0.00    0.00  131.14    0.00    5.46    0.00    0.00    0.00    0.00    0.00    0.00     0.00    0.00    0.00    0.00    0.00
   33    0.00    0.00    0.00    0.00    0.00    0.00  131.14    0.00    6.20    0.00    0.00    0.00    0.00    0.00    0.00     0.00    0.00    0.00    0.00    0.00
   34    0.00    0.00    0.00    0.00    0.00    0.00  131.14    0.00    6.13    0.00    0.00    0.00    0.00    0.00    0.00     0.00    0.00    0.00    0.00    0.00
   35    0.00    0.00    0.00    0.00    0.00    0.00  131.14    0.00    5.17    0.00    0.00    0.00    0.00    0.00    0.00     0.00    0.00    0.00    0.00    0.00
   36    0.00    0.00    0.00    0.00    0.00    0.00  131.14    0.00    5.83    0.00    0.00    0.00    0.00    0.00    0.00     0.00    0.00    0.00    0.00    0.00
   37    0.00    0.00    0.00    0.00    0.00    0.00  131.14    0.00    5.21    0.00    0.00    0.00    0.00    0.00    0.00     0.00    0.00    0.00    0.00    0.00
   38    0.00    0.00    0.00    0.00    0.00    0.00  131.14    0.00    6.53    0.00    0.00    0.00    0.00    0.00    0.00     0.00    0.00    0.00    0.00    0.00
   39    0.00    0.00    0.00    0.00    0.00    0.00  131.14    0.00    5.60    0.00    0.00    0.00    0.00    0.00    0.00     0.00    0.00    0.00    0.00    0.00
   40    0.00    0.00    0.00    0.00    0.00    0.00  131.14    0.00    6.31    0.00    0.00    0.00    0.00    0.00    0.00     0.00    0.00    0.00    0.00    0.00
   41    0.00    0.00    0.00    0.00    0.00    0.00  131.14    0.00    5.46    0.00    0.00    0.00    0.00    0.00    0.00     0.00    0.00    0.00    0.00    0.00
   42    0.00    0.00    0.00    0.00    0.00    0.00  131.14    0.00    5.06    0.00    0.00    0.00    0.00    0.00    0.00     0.00    0.00    0.00    0.00    0.00
   43    0.00    0.00    0.00    0.00    0.00    0.00  131.14    0.00    5.72    0.00    0.00    0.00    0.00    0.00    0.00     0.00    0.00    0.00    0.00    0.00
   44    0.00    0.00    0.00    0.00    0.00    0.00  131.14    0.00    6.17    0.00    0.00    0.00    0.00    0.00    0.00     0.00    0.00    0.00    0.00    0.00
   45    0.00    0.00    0.00    0.00    0.00    0.00  131.14    0.00    6.35    0.00    0.00    0.00    0.00    0.00    0.00     0.00    0.00    0.00    0.00    0.00
   46    0.00    0.00    0.00    0.00    0.00    0.00  131.14    0.00    6.45    0.00    0.00    0.00    0.00    0.00    0.00     0.00    0.00    0.00    0.00    0.00
   47    0.00    0.00    0.00    0.00    0.00    0.00  131.14    0.00    5.48    0.00    0.00    0.00    0.00    0.00    0.00     0.00    0.00    0.00    0.00    0.00
   48    0.00    0.00    0.00    0.00    0.00    0.00  131.14    0.00    5.86    0.00    0.00    0.00    0.00    0.00    0.00     0.00    0.00    0.00    0.00    0.00
   49    0.00    0.00    0.00    0.00    0.00    0.00  131.14    0.00    5.89    0.00    0.00    0.00    0.00    0.00    0.00     0.00    0.00    0.00    0.00    0.00
   50    0.00    0.00    0.00    0.00    0.00    0.00  131.14    0.00    5.63    0.00    0.00    0.00    0.00    0.00    0.00     0.00    0.00    0.00    0.00    0.00
   51    0.00    0.00    0.00    0.00    0.00    0.00  131.14    0.00    5.55    0.00    0.00    0.00    0.00    0.00    0.00     0.00    0.00    0.00    0.00    0.00
   52    0.00    0.00    0.00    0.00    0.00    0.00  131.14    0.00    6.56    0.00    0.00    0.00    0.00    0.00    0.00     0.00    0.00    0.00    0.00    0.00
   53    0.00    0.00    0.00    0.00    0.00    0.00  131.14    0.00    6.01    0.00    0.00    0.00    0.00    0.00    0.00     0.00    0.00    0.00    0.00    0.00
   54    0.00    0.00    0.00    0.00    0.00    0.00  131.14    0.00    5.08    0.00    0.00    0.00    0.00    0.00    0.00     0.00    0.00    0.00    0.00    0.00
   55    0.00    0.00    0.00    0.00    0.00    0.00  131.14    0.00    6.52    0.00    0.00    0.00    0.00    0.00    0.00     0.00    0.00    0.00    0.00    0.00
   56    0.00    0.00    0.00    0.00    0.00    0.00  131.14    0.00    5.59    0.00    0.00    0.00    0.00    0.00    0.00     0.00    0.00    0.00    0.00    0.00
   57    0.00    0.00    0.00    0.00    0.00    0.00  131.14    0.00    6.94    0.00    0.00    0.00    0.00    0.00    0.00     0.00    0.00    0.00    0.00    0.00
   58    0.00    0.00    0.00    0.00    0.00    0.00  131.14    0.00    6.23    0.00    0.00    0.00    0.00    0.00    0.00     0.00    0.00    0.00    0.00    0.00
   59    0.00    0.00    0.00    0.00    0.00    0.00  131.14    0.00    5.58    0.00    0.00    0.00    0.00    0.00    0.00     0.00    0.00    0.00    0.00    0.00
    2    0.00    0.00    0.00    0.00    0.00    0.00  131.14    0.00  164.56    0.00    0.00    0.00    0.00    0.00    0.00     0.00    0.00    0.00    0.00    0.00
   60    0.00    0.00    0.00    0.00    0.00    0.00  131.14    0.00    5.89    0.00    0.00    0.00    0.00    0.00    0.00     0.00    0.00    0.00    0.00    0.00
   61    0.00    0.00    0.00    0.00    0.00    0.00  131.14    0.00    5.57    0.00    0.00    0.00    0.00    0.00    0.00     0.00    0.00    0.00    0.00    0.00
   62    0.00    0.00    0.00    0.00    0.00    0.00  131.02    0.12    6.46    0.00    0.00    0.00    0.00    0.00    0.00     0.00    0.00    0.00    0.00    0.00
   63    0.00    0.00    0.00    0.00    0.00    0.00  130.78    0.24    5.72    0.00    0.00    0.00    0.00    0.00    1.20     0.00    0.00    0.00    0.00    0.00
   64    0.00    0.00    0.00    0.00    0.00    0.00  130.24    0.55    6.45    0.00    0.00    0.00    0.00    0.00    1.97     0.00    0.00    0.00    0.00    0.00
   65    0.00    0.00    0.00    0.00    0.00    0.00  129.30    0.94    6.28    0.00    0.00    0.00    0.00    0.00    1.88     0.00    0.00    0.00    0.00    0.00
   66    0.00    0.00    0.00    0.00    0.00    0.00  128.36    0.94    6.26    0.00    0.00    0.00    0.00    0.00    2.56     0.00    0.00    0.00    0.00    0.00
   67    0.00    0.00    0.00    0.00    0.00    0.00  127.28    1.08    6.18    0.00    0.00    0.00    0.00    0.00    4.33     0.00    0.00    0.00    0.00    0.00
   68    0.00    0.00    0.00    0.00    0.00    0.00  124.79    2.50    5.31    0.00    0.00    0.00    0.00    0.00    5.49     0.00    0.00    0.00    0.00    0.00
   69    0.00    0.00    0.00    0.00    0.00    0.00  122.83    1.96    5.46    0.00    0.00    0.00    0.00    0.00    6.30     0.00    0.00    0.00    0.00    0.00
   70    0.00    0.00    0.00    0.00    0.00    0.00  121.23    1.61    6.12    0.00    0.00    0.00    0.00    0.00    7.74     0.00    0.00    0.00    0.00    0.00
   71    0.00    0.00    0.00    0.00    0.00    0.00  118.34    2.89    5.75    0.00    0.00    0.00    0.00    0.00    9.26     0.00    0.00    0.00    0.00    0.00
   72    0.00    0.00    0.00    0.00    0.00    0.00  115.88    2.47    5.83    0.00    0.00    0.00    0.00    0.00    2.19     0.00    0.00    0.00    0.00    0.00
   73    0.00    0.00    0.00    0.00    0.00    0.00  112.98    2.90    6.34    0.00    0.00    0.00    0.00    0.00    0.08     0.00    0.00    0.00    0.00    0.00
   74    0.00    0.00    0.00    0.00    0.00    0.00  110.11    2.86    6.84    0.00    0.00    0.00    0.00    0.00   10.34     0.00    0.00    0.00    0.00    0.00
   75    0.00    0.00    0.00    0.00    0.00    0.00  107.50    2.61    5.94    0.00    0.00    0.00    0.00    0.00    8.91     0.00    0.00    0.00    0.00    0.00
   76    0.00    0.00    0.00    0.00    0.00    0.00  104.67    2.83    7.16    0.00    0.00    0.00    0.00    0.00    1.63     0.00    0.00    0.00    0.00    0.00
   77    0.00    0.00    0.00    0.00    0.00    0.00  101.60    3.07    7.33    0.00    0.00    0.00    0.00    0.00    1.55     0.00    0.00    0.00    0.00    0.00
   78    0.00    0.00    0.00    0.00    0.00    0.00   98.41    3.20    5.89    0.00    0.00    0.00    0.00    0.00    1.58     0.00    0.00    0.00    0.00    0.00
   79    0.00    0.00    0.00    0.00    0.00    0.00   94.98    3.42    5.60    0.00    0.00    0.00    0.00    0.00    2.10     0.00    0.00    0.00    0.00    0.00
   80    0.00    0.00    0.00    0.00    0.00    0.00   91.90    3.09    5.61    0.00    0.00    0.00    0.00    0.00    2.12     0.00    0.00    0.00    0.00    0.00
   81    0.00    0.00    0.00    0.00    0.00    0.00   88.47    3.43    5.79    0.00    0.00    0.00    0.00    0.00    2.33     0.00    0.00    0.00    0.00    0.00
   82    0.00    0.00    0.00    0.00    0.00    0.00   85.20    3.27    6.18    0.00    0.00    0.00    0.00    0.00    2.09     0.00    0.00    0.00    0.00    0.00
   83    0.00    0.00    0.00    0.00    0.00    0.00   81.60    3.60    5.95    0.00    0.00    0.00    0.00    0.00    2.04     0.00    0.00    0.00    0.00    0.00
   84    0.00    0.00    0.00    0.00    0.00    0.00   78.15    3.45    5.76    0.00    0.00    0.00    0.00    0.00    2.40     0.00    0.00    0.00    0.00    0.00
   85    0.00    0.00    0.00    0.00    0.00    0.00   74.84    3.32    6.30    0.00    0.00    0.00    0.00    0.00    2.16     0.00    0.00    0.00    0.00    0.00
   86    0.00    0.00    0.00    0.00    0.00    0.00   71.74    3.10    5.43    0.00    0.00    0.00    0.00    0.00    2.50     0.00    0.00    0.00    0.00    0.00
   87    0.00    0.00    0.00    0.00    0.00    0.00   68.04    3.70    5.85    0.00    0.00    0.00    0.00    0.00    1.91     0.00    0.00    0.00    0.00    0.00
   88    0.00    0.00    0.00    0.00    0.00    0.00   64.67    3.37    5.51    0.00    0.00    0.00    0.00    0.00    2.58     0.00    0.00    0.00    0.00    0.00
   89    0.00    0.00    0.00    0.00    0.00    0.00   61.23    3.44    5.63    0.00    0.00    0.00    0.00    0.00    2.62     0.00    0.00    0.00    0.00    0.00
   90    0.00    0.00    0.00    0.00    0.00    0.00   57.97    3.26    5.83    0.00    0.00    0.00    0.00    0.00    2.68     0.00    0.00    0.00    0.00    0.00
    3    0.00    0.00    0.00    0.00    0.00    0.00   57.97   73.17  186.24    0.00    0.00    0.00    0.00    0.00   94.55     0.00    0.00    0.00    0.00    0.00
   91    0.00    0.00    0.00    0.00    0.00    0.00   54.35    3.63    5.60    0.00    0.00    0.00    0.00    0.00    2.03     0.00    0.00    0.00    0.00    0.00
   92    0.00    0.00    0.00    0.00    0.00    0.00   50.58    3.76    6.19    0.00    0.00    0.00    0.00    0.00    2.32     0.00    0.00    0.00    0.00    0.00
   93    0.00    0.00    0.00    0.00    0.00    0.00   47.16    3.42    6.08    0.00    0.00    0.00    0.00    0.00    1.93     0.00    0.00    0.00    0.00    0.00
   94    0.00    0.00    0.00    0.00    0.00    0.00   43.20    3.97    7.67    0.00    0.00    0.00    0.00    0.00    1.26     0.00    0.00    0.00    0.00    0.00
   95    0.00    0.00    0.00    0.00    0.00    0.00   40.92    2.27    6.51    0.00    0.00    0.00    0.00    0.00    1.68     0.00    0.00    0.00    0.00    0.00
   96    0.00    0.00    0.00    0.00    0.00    0.00   39.16    1.77    6.67    0.00    0.00    0.00    0.00    0.00    2.40     0.00    0.00    0.00    0.00    0.00
   97    0.00    0.00    0.00    0.00    0.00    0.00   37.72    1.44    6.69    0.00    0.00    0.00    0.00    0.00    2.28     0.00    0.00    0.00    0.00    0.00
   98    0.00    0.00    0.00    0.00    0.00    0.00   36.45    1.26    6.52    0.00    0.00    0.00    0.00    0.00    2.21     0.00    0.00    0.00    0.00    0.00
   99    0.00    0.00    0.00    0.00    0.00    0.00   35.58    0.87    4.64    0.00    0.00    0.00    0.00    0.00    2.28     0.00    0.00    0.00    0.00    0.00
  100    0.00    0.00    0.00    0.00    0.00    0.00   34.58    1.00    6.48    0.00    0.00    0.00    0.00    0.00    2.41     0.00    0.00    0.00    0.00    0.00
  101   12.60    2.35    0.00    0.00    0.00    0.00   45.03    1.24    1.96    2.35    0.00    0.06    0.00    0.00    1.11     0.00    0.00    0.00    0.00    0.55
  102   29.00    6.52    0.00    0.00    0.00    0.00   66.13    3.16    3.89    6.52    0.00    0.05    0.00    0.00    8.18     0.00    0.00    0.00    0.00    2.39
  103   44.80   10.65    0.00    0.00    0.00    0.00  100.08    3.21    3.99   10.61    0.00    0.04    0.00    0.00    0.07     0.01    0.00    0.00    0.00    2.78
  104   12.50    1.78    0.00    0.00    0.00    0.00  110.83    1.29    1.63    1.83    0.00    0.03    0.00    0.00    0.08     0.01    0.00    0.00    0.00    0.00
  105    0.00    0.00    0.00    0.00    0.00    0.00  106.71    4.12    6.44    0.00    0.00    0.03    0.00    0.00    0.08     0.01    0.00    0.00    0.00    0.00
  106    0.00    0.00    0.00    0.00    0.00    0.00  102.12    4.58    6.95    0.00    0.00    0.02    0.00    0.00    0.08     0.00    0.00    0.00    0.00    0.00
  107    0.00    0.00    0.00    0.00    0.00    0.00   97.85    4.27    6.63    0.00    0.00    0.02    0.00    0.00    0.08     0.00    0.00    0.00    0.00    0.00
  108    0.00    0.00    0.00    0.00    0.00    0.00   93.52    4.33    6.48    0.00    0.00    0.02    0.00    0.00    0.08     0.00    0.00    0.00    0.00    0.00
  109    0.00    0.00    0.00    0.00    0.00    0.00   89.09    4.43    6.84    0.00    0.00    0.01    0.00    0.00    0.08     0.00    0.00    0.00    0.00    0.00
  110    0.00    0.00    0.00    0.00    0.00    0.00   84.74    4.35    6.37    0.00    0.00    0.01    0.00    0.00    0.08     0.00    0.00    0.00    0.00    0.00
  111    0.00    0.00    0.00    0.00    0.00    0.00   80.31    4.43    6.61    0.00    0.00    0.01    0.00    0.00    0.08     0.00    0.00    0.00    0.00    0.00
  112    0.00    0.00    0.00    0.00    0.00    0.00   75.26    5.05    7.78    0.00    0.00    0.01    0.00    0.00    0.08     0.00    0.00    0.00    0.00    0.00
  113    0.00    0.00    0.00    0.00    0.00    0.00   70.43    4.83    8.29    0.00    0.00    0.01    0.00    0.00    0.08     0.00    0.00    0.00    0.00    0.00
  114    0.00    0.00    0.00    0.00    0.00    0.00   65.73    4.70    7.40    0.00    0.00    0.00    0.00    0.00    0.08     0.00    0.00    0.00    0.00    0.00
  115    0.00    0.00    0.00    0.00    0.00    0.00   60.58    5.15    8.07    0.00    0.00    0.00    0.00    0.00    0.07     0.00    0.00    0.00    0.00    0.00
  116    0.00    0.00    0.00    0.00    0.00    0.00   56.58    3.99    6.13    0.00    0.00    0.00    0.00    0.00    0.07     0.00    0.00    0.00    0.00    0.00
  117    0.00    0.00    0.00    0.00    0.00    0.00   53.47    3.11    5.06    0.00    0.00    0.00    0.00    0.00    0.07     0.00    0.00    0.00    0.00    0.00
  118    0.00    0.00    0.00    0.00    0.00    0.00   48.83    4.64    6.78    0.00    0.00    0.00    0.00    0.00    0.07     0.00    0.00    0.00    0.00    0.00
  119    0.00    0.00    0.00    0.00    0.00    0.00   44.36    4.47    6.59    0.00    0.00    0.00    0.00    0.00    0.07     0.00    0.00    0.00    0.00    0.00
  120    0.00    0.00    0.00    0.00    0.00    0.00   41.15    3.21    7.44    0.00    0.00    0.00    0.00    0.00    0.07     0.00    0.00    0.00    0.00    0.00
    4   98.90   21.30    0.02    0.00    0.00    0.00   41.15  101.96  184.37   21.32    0.00    0.34    0.00    0.00   31.46     0.05    0.00    0.01    0.00    5.72
  121    0.00    0.00    0.00    0.00    0.00    0.00   38.54    2.61    8.98    0.00    0.00    0.00    0.00    0.00    0.07     0.00    0.00    0.00    0.00    0.00
  122    0.00    0.00    0.00    0.00    0.00    0.00   37.27    1.27    5.11    0.00    0.00    0.00    0.00    0.00    0.07     0.00    0.00    0.00    0.00    0.00
  123    0.00    0.00    0.00    0.00    0.00    0.00   36.09    1.18    5.93    0.00    0.00    0.00    0.00    0.00    0.07     0.00    0.00    0.00    0.00    0.00
  124    0.00    0.00    0.00    0.00    0.00    0.00   34.84    1.25    6.39    0.00    0.00    0.00    0.00    0.00    0.06     0.00    0.00    0.00    0.00    0.00
  125    0.00    0.00    0.00    0.00    0.00    0.00   33.71    1.13    6.74    0.00    0.00    0.00    0.00    0.00    0.06     0.00    0.00    0.00    0.00    0.00
  126    0.10    0.01    0.00    0.00    0.00    0.00   33.29    0.52    3.36    0.02    0.00    0.00    0.00    0.00    0.06     0.00    0.00    0.00    0.00    0.00
  127    0.10    0.01    0.00    0.00    0.00    0.00   32.79    0.61    4.32    0.02    0.00    0.00    0.00    0.00    0.06     0.00    0.00    0.00    0.00    0.00
  128    0.00    0.00    0.00    0.00    0.00    0.00   31.91    0.88    6.73    0.00    0.00    0.00    0.00    0.00    0.06     0.00    0.00    0.00    0.00    0.00
  129    0.00    0.00    0.00    0.00    0.00    0.00   30.90    1.01    8.87    0.00    0.00    0.00    0.00    0.00    0.06     0.00    0.00    0.00    0.00    0.00
  130    0.00    0.00    0.00    0.00    0.00    0.00   30.01    0.89    8.09    0.00    0.00    0.00    0.00    0.00    0.06     0.00    0.00    0.00    0.00    0.00
  131    0.00    0.00    0.00    0.00    0.00    0.00   29.41    0.60    5.83    0.00    0.00    0.00    0.00    0.00    0.06     0.00    0.00    0.00    0.00    0.00
  132    0.00    0.00    0.00    0.00    0.00    0.00   28.66    0.75    8.18    0.00    0.00    0.00    0.00    0.00    0.06     0.00    0.00    0.00    0.00    0.00
  133    0.00    0.00    0.00    0.00    0.00    0.00   28.18    0.48    5.57    0.00    0.00    0.00    0.00    0.00    0.06     0.00    0.00    0.00    0.00    0.00
  134    0.00    0.00    0.00    0.00    0.00    0.00   27.65    0.53    6.17    0.00    0.00    0.00    0.00    0.00    0.06     0.00    0.00    0.00    0.00    0.00
  135    0.00    0.00    0.00    0.00    0.00    0.00   27.22    0.43    5.80    0.00    0.00    0.00    0.00    0.00    0.06     0.00    0.00    0.00    0.00    0.00
  136    0.00    0.00    0.00    0.00    0.00    0.00   26.72    0.50    6.57    0.00    0.00    0.00    0.00    0.00    0.06     0.00    0.00    0.00    0.00    0.00
  137    0.00    0.00    0.00    0.00    0.00    0.00   26.15    0.58    8.67    0.00    0.00    0.00    0.00    0.00    0.06     0.00    0.00    0.00    0.00    0.00
  138    0.00    0.00    0.00    0.00    0.00    0.00   25.67    0.48    6.83    0.00    0.00    0.00    0.00    0.00    0.06     0.00    0.00    0.00    0.00    0.00
  139    0.00    0.00    0.00    0.00    0.00    0.00   25.06    0.61   10.20    0.00    0.00    0.00    0.00    0.00    0.06     0.00    0.00    0.00    0.00    0.00
  140    8.50    1.30    0.00    0.00    0.00    0.00   33.24    0.07    0.45    1.31    0.00    0.00    0.00    0.00    0.06     0.00    0.00    0.00    0.00    0.09
  141    0.00    0.00    0.00    0.00    0.00    0.00   32.17    1.07    6.67    0.00    0.00    0.00    0.00    0.00    0.06     0.00    0.00    0.00    0.00    0.00
  142    2.40    0.34    0.00    0.00    0.00    0.00   33.48    1.13    3.28    0.34    0.00    0.00    0.00    0.00    0.06     0.00    0.00    0.00    0.00    0.00
  143    0.00    0.00    0.00    0.00    0.00    0.00   32.29    1.19    6.78    0.00    0.00    0.00    0.00    0.00    0.06     0.00    0.00    0.00    0.00    0.00
  144    0.00    0.00    0.00    0.00    0.00    0.00   31.55    0.74    4.97    0.00    0.00    0.00    0.00    0.00    0.06     0.00    0.00    0.00    0.00    0.00
  145    0.00    0.00    0.00    0.00    0.00    0.00   30.62    0.93    7.87    0.00    0.00    0.00    0.00    0.00    0.06     0.00    0.00    0.00    0.00    0.00
  146    0.20    0.03    0.00    0.00    0.00    0.00   30.67    0.16    1.32    0.03    0.00    0.00    0.00    0.00    0.06     0.00    0.00    0.00    0.00    0.00
  147    0.00    0.00    0.00    0.00    0.00    0.00   30.01    0.66    5.33    0.00    0.00    0.00    0.00    0.00    0.06     0.00    0.00    0.00    0.00    0.00
  148    1.70    0.24    0.00    0.00    0.00    0.00   30.76    0.97    3.19    0.24    0.00    0.00    0.00    0.00    0.06     0.00    0.00    0.00    0.00    0.00
  149    1.10    0.16    0.00    0.00    0.00    0.00   30.97    0.89    2.73    0.16    0.00    0.00    0.00    0.00    0.06     0.00    0.00    0.00    0.00    0.00
  150    0.00    0.00    0.00    0.00    0.00    0.00   30.05    0.91    6.31    0.00    0.00    0.00    0.00    0.00    0.00     0.00    0.00    0.00    0.00    0.00
  151    0.00    0.00    0.00    0.00    0.00    0.00   29.03    1.03    7.95    0.00    0.00    0.00    0.00    0.00    0.00     0.00    0.00    0.00    0.00    0.00
    5   14.10    2.10    0.03    0.00    0.00    0.00   29.03   26.03  185.17    2.13    0.00    0.01    0.00    0.00    1.82     0.00    0.00    0.00    0.00    0.09
  152    0.00    0.00    0.00    0.00    0.00    0.00   28.35    0.68    7.42    0.00    0.00    0.00    0.00    0.00    0.00     0.00    0.00    0.00    0.00    0.00
  153    0.00    0.00    0.00    0.00    0.00    0.00   27.71    0.64    7.91    0.00    0.00    0.00    0.00    0.00    0.00     0.00    0.00    0.00    0.00    0.00
  154   36.30   16.95    0.00    0.00    0.00    0.00   46.50    2.17    2.83   16.88    0.00    0.00    0.00    0.00    0.00     0.01    0.00    0.00    0.00    6.01
  155    9.10    1.59    0.00    0.00    0.00    0.00   54.18    0.84    1.35    1.65    0.00    0.00    0.00    0.00    0.00     0.01    0.00    0.00    0.00    0.29
  156    0.40    0.06    0.00    0.00    0.00    0.00   51.30    3.29    4.02    0.06    0.00    0.00    0.00    0.00    0.00     0.01    0.00    0.00    0.00    0.00
  157    0.00    0.00    0.00    0.00    0.00    0.00   45.80    5.50    8.15    0.00    0.00    0.00    0.00    0.00    0.00     0.00    0.00    0.00    0.00    0.00
  158    0.00    0.00    0.00    0.00    0.00    0.00   41.54    4.26    8.48    0.00    0.00    0.00    0.00    0.00    0.00     0.00    0.00    0.00    0.00    0.00
  159    0.00    0.00    0.00    0.00    0.00    0.00   39.16    2.38    7.48    0.00    0.00    0.00    0.00    0.00    0.00     0.00    0.00    0.00    0.00    0.00
  160    0.00    0.00    0.00    0.00    0.00    0.00   36.60    2.56   10.90    0.00    0.00    0.00    0.00    0.00    0.00     0.00    0.00    0.00    0.00    0.00
  161    0.00    0.00    0.00    0.00    0.00    0.00   34.98    1.62    8.37    0.00    0.00    0.00    0.00    0.00    0.00     0.00    0.00    0.00    0.00    0.00
  162    0.00    0.00    0.00    0.00    0.00    0.00   33.53    1.45    8.80    0.00    0.00    0.00    0.00    0.00    0.00     0.00    0.00    0.00    0.00    0.00
  163    0.00    0.00    0.00    0.00    0.00    0.00   32.44    1.08    7.32    0.00    0.00    0.00    0.00    0.00    0.00     0.00    0.00    0.00    0.00    0.00
  164    0.00    0.00    0.00    0.00    0.00    0.00   31.50    0.94    7.26    0.00    0.00    0.00    0.00    0.00    0.00     0.00    0.00    0.00    0.00    0.00
  165    0.00    0.00    0.00    0.00    0.00    0.00   30.71    0.79    6.46    0.00    0.00    0.00    0.00    0.00    0.00     0.00    0.00    0.00    0.00    0.00
  166    0.00    0.00    0.00    0.00    0.00    0.00   29.88    0.83    7.77    0.00    0.00    0.00    0.00    0.00    0.00     0.00    0.00    0.00    0.00    0.00
  167    0.00    0.00    0.00    0.00    0.00    0.00   29.88    0.00    7.02    0.00    0.00    0.00    0.00    0.00    0.00     0.00    0.00    0.00    0.00    0.00
  168    0.00    0.00    0.00    0.00    0.00    0.00   29.88    0.00    8.87    0.00    0.00    0.00    0.00    0.00    0.00     0.00    0.00    0.00    0.00    0.00
  169    0.00    0.00    0.00    0.00    0.00    0.00   29.88    0.00    9.27    0.00    0.00    0.00    0.00    0.00    0.00     0.00    0.00    0.00    0.00    0.00
  170    0.00    0.00    0.00    0.00    0.00    0.00   29.88    0.00    5.88    0.00    0.00    0.00    0.00    0.00    0.00     0.00    0.00    0.00    0.00    0.00
  171    4.40    0.63    0.00    0.00    0.00    0.00   33.52    0.77    1.62    0.63    0.00    0.00    0.00    0.00    0.00     0.00    0.00    0.00    0.00    0.00
  172    1.30    0.19    0.00    0.00    0.00    0.00   33.80    1.04    2.69    0.19    0.00    0.00    0.00    0.00    0.00     0.00    0.00    0.00    0.00    0.00
  173    0.20    0.03    0.00    0.00    0.00    0.00   34.00    0.00    3.03    0.03    0.00    0.00    0.00    0.00    0.00     0.00    0.00    0.00    0.00    0.00
  174    2.60    0.37    0.00    0.00    0.00    0.00   36.57    0.49    1.04    0.37    0.00    0.00    0.00    0.00    0.00     0.00    0.00    0.00    0.00    0.00
  175    0.00    0.00    0.00    0.00    0.00    0.00   36.57    0.00    7.05    0.00    0.00    0.00    0.00    0.00    0.00     0.00    0.00    0.00    0.00    0.00
  176    0.00    0.00    0.00    0.00    0.00    0.00   36.57    0.00    9.43    0.00    0.00    0.00    0.00    0.00    0.00     0.00    0.00    0.00    0.00    0.00
  177    1.70    0.24    0.00    0.00    0.00    0.00   37.85    0.43    0.91    0.24    0.00    0.00    0.00    0.00    0.00     0.00    0.00    0.00    0.00    0.00
  178    0.00    0.00    0.00    0.00    0.00    0.00   37.85    0.00    8.85    0.00    0.00    0.00    0.00    0.00    0.00     0.00    0.00    0.00    0.00    0.00
  179    0.00    0.00    0.00    0.00    0.00    0.00   37.85    0.00    7.28    0.00    0.00    0.00    0.00    0.00    0.00     0.00    0.00    0.00    0.00    0.00
  180    1.10    0.16    0.00    0.00    0.00    0.00   38.69    0.26    0.54    0.16    0.00    0.00    0.00    0.00    0.00     0.00    0.00    0.00    0.00    0.00
  181    0.30    0.04    0.00    0.00    0.00    0.00   37.95    1.04    2.23    0.04    0.00    0.00    0.00    0.00    0.00     0.00    0.00    0.00    0.00    0.00
    6   57.40   20.25    0.03    0.00    0.00    0.00   37.95   33.08  180.22   20.28    0.00    0.04    0.00    0.00    0.00     0.05    0.00    0.01    0.00    6.30
  182   13.10    2.69    0.00    0.00    0.00    0.00   49.27    0.29    0.61    2.70    0.00    0.01    0.00    0.00    0.00     0.01    0.00    0.00    0.00    0.83
  183    2.00    0.28    0.00    0.00    0.00    0.00   50.77    0.48    1.00    0.29    0.00    0.01    0.00    0.00    0.00     0.01    0.00    0.00    0.00    0.00
  184    1.40    0.20    0.00    0.00    0.00    0.00   51.87    0.30    0.63    0.20    0.00    0.01    0.00    0.00    0.00     0.01    0.00    0.00    0.00    0.00
  185    0.70    0.10    0.00    0.00    0.00    0.00   51.67    0.90    1.89    0.10    0.00    0.01    0.00    0.00    0.00     0.01    0.00    0.00    0.00    0.00
  186    0.00    0.00    0.00    0.00    0.00    0.00   51.67    0.00    8.47    0.00    0.00    0.00    0.00    0.00    0.00     0.00    0.00    0.00    0.00    0.00
  187    0.00    0.00    0.00    0.00    0.00    0.00   51.67    0.00    9.50    0.00    0.00    0.00    0.00    0.00    0.00     0.00    0.00    0.00    0.00    0.00
  188    0.00    0.00    0.00    0.00    0.00    0.00   51.67    0.00    8.80    0.00    0.00    0.00    0.00    0.00    0.00     0.00    0.00    0.00    0.00    0.00
  189    0.00    0.00    0.00    0.00    0.00    0.00   51.67    0.00    7.76    0.00    0.00    0.00    0.00    0.00    0.00     0.00    0.00    0.00    0.00    0.00
  190    1.20    0.17    0.00    0.00    0.00    0.00   51.82    1.04    3.92    0.17    0.00    0.00    0.00    0.00    0.00     0.00    0.00    0.00    0.00    0.00
  191    0.40    0.06    0.00    0.00    0.00    0.00   52.23    0.00    2.13    0.06    0.00    0.00    0.00    0.00    0.00     0.00    0.00    0.00    0.00    0.00
  192    0.00    0.00    0.00    0.00    0.00    0.00   52.23    0.00    9.40    0.00    0.00    0.00    0.00    0.00    0.00     0.00    0.00    0.00    0.00    0.00
  193    2.00    0.28    0.00    0.00    0.00    0.00   53.73    0.53    1.09    0.29    0.00    0.01    0.00    0.00    0.00     0.00    0.00    0.00    0.00    0.00
  194   12.30    1.75    0.00    0.00    0.00    0.00   65.10    0.48    0.99    1.75    0.00    0.01    0.00    0.00    0.00     0.01    0.00    0.00    0.00    0.00
  195   21.20    4.30    0.00    0.00    0.00    0.00   83.19    0.35    0.73    4.30    0.00    0.01    0.00    0.00    0.00     0.02    0.00    0.00    0.00    1.28
  196    8.40    1.90    0.00    0.00    0.00    0.00   89.71    1.02    2.10    1.90    0.00    0.01    0.00    0.00    0.00     0.03    0.00    0.00    0.00    0.70
  197   16.70    5.33    0.00    0.00    0.00    0.00  100.48    1.04    2.70    4.71    0.00    0.01    0.00    0.00    0.00     0.05    0.00    0.01    0.00    1.61
  198   15.50    2.83    0.00    0.00    0.00    0.00  114.77    0.00    1.80    3.45    0.00    0.01    0.00    0.00    0.00     0.05    0.00    0.01    0.00    0.62
  199    0.00    0.00    0.00    0.00    0.00    0.00  114.77    0.00    8.10    0.00    0.00    0.01    0.00    0.00    0.00     0.04    0.00    0.01    0.00    0.00
  200    0.00    0.00    0.00    0.00    0.00    0.00  114.77    0.00    6.29    0.00    0.00    0.00    0.00    0.00    0.00     0.03    0.00    0.00    0.00    0.00
  201    0.00    0.00    0.00    0.00    0.00    0.00  114.77    0.00    6.64    0.00    0.00    0.00    0.00    0.00    0.00     0.03    0.00    0.00    0.00    0.00
  202    0.00    0.00    0.00    0.00    0.00    0.00  114.77    0.00    5.79    0.00    0.00    0.00    0.00    0.00    0.00     0.02    0.00    0.00    0.00    0.00
  203    0.00    0.00    0.00    0.00    0.00    0.00  114.77    0.00    4.60    0.00    0.00    0.00    0.00    0.00    0.00     0.02    0.00    0.00    0.00    0.00
  204    0.00    0.00    0.00    0.00    0.00    0.00  114.77    0.00    8.69    0.00    0.00    0.00    0.00    0.00    0.00     0.02    0.00    0.00    0.00    0.00
  205    0.00    0.00    0.00    0.00    0.00    0.00  114.77    0.00    6.99    0.00    0.00    0.00    0.00    0.00    0.00     0.01    0.00    0.00    0.00    0.00
  206   26.90   11.05    0.00    0.00    0.00    0.00  130.98    0.91    1.88   11.05    0.00    0.01    0.00    0.00    0.00     0.08    0.00    0.01    0.00    3.25
  207    0.00    0.00    0.00    0.00    0.00    0.00  130.98    0.00    5.85    0.00    0.00    0.01    0.00    0.00    0.00     0.07    0.00    0.01    0.00    0.00
  208    0.00    0.00    0.00    0.00    0.00    0.00  130.98    0.00    6.75    0.00    0.00    0.01    0.00    0.00    0.00     0.06    0.00    0.01    0.00    0.00
  209    0.90    0.13    0.00    0.00    0.00    0.00  131.89    0.00    2.28    0.13    0.00    0.01    0.00    0.00    0.00     0.05    0.00    0.01    0.00    0.00
  210   47.20   18.72    0.00    0.00    0.00    0.00  162.37    0.00    2.49   18.72    0.00    0.01    0.00    0.00    0.00     0.19    0.00    0.02    0.00    4.26
  211    0.00    0.00    0.00    0.00    0.00    0.00  162.37    0.00   10.99    0.00    0.00    0.01    0.00    0.00    0.00     0.16    0.00    0.02    0.00    0.00
  212    6.30    0.90    0.00    0.00    0.00    0.00  168.62    0.00    1.68    0.90    0.00    0.01    0.00    0.00    0.00     0.14    0.00    0.02    0.00    0.00
    7  176.20   50.70    0.05    0.00    0.00    0.00  168.62    7.34  142.56   50.75    0.00    0.20    0.00    0.00    0.00     1.13    0.01    0.14    0.00   12.55
  213    2.70    0.38    0.00    0.00    0.00    0.00  170.70    1.04    3.03    0.39    0.00    0.01    0.00    0.00    0.00     0.11    0.00    0.01    0.00    0.00
  214    0.00    0.00    0.00    0.00    0.00    0.00  170.70    0.00    8.91    0.00    0.00    0.01    0.00    0.00    0.00     0.09    0.00    0.01    0.00    0.00
  215    0.00    0.00    0.00    0.00    0.00    0.00  170.70    0.00    8.92    0.00    0.00    0.01    0.00    0.00    0.00     0.08    0.00    0.01    0.00    0.00
  216    0.00    0.00    0.00    0.00    0.00    0.00  170.70    0.00    6.72    0.00    0.00    0.01    0.00    0.00    0.00     0.06    0.00    0.01    0.00    0.00
  217    1.20    0.17    0.00    0.00    0.00    0.00  171.88    0.00    5.19    0.17    0.00    0.01    0.00    0.00    0.00     0.05    0.00    0.01    0.00    0.00
  218    0.00    0.00    0.00    0.00    0.00    0.00  171.88    0.00    7.24    0.00    0.00    0.00    0.00    0.00    0.00     0.04    0.00    0.01    0.00    0.00
  219    0.00    0.00    0.00    0.00    0.00    0.00  171.88    0.00    7.46    0.00    0.00    0.00    0.00    0.00    0.00     0.04    0.00    0.00    0.00    0.00
  220    0.80    0.11    0.00    0.00    0.00    0.00  171.64    1.04    3.07    0.12    0.00    0.00    0.00    0.00    0.00     0.03    0.00    0.00    0.00    0.00
  221    1.00    0.14    0.00    0.00    0.00    0.00  172.60    0.00    3.07    0.14    0.00    0.00    0.00    0.00    0.00     0.03    0.00    0.00    0.00    0.00
  222    8.60    4.86    0.00    0.00    0.00    0.00  176.93    0.00    3.02    4.76    0.00    0.01    0.00    0.00    0.00     0.07    0.00    0.01    0.00    1.66
  223    1.00    0.14    0.00    0.00    0.00    0.00  176.90    1.04    3.44    0.25    0.00    0.01    0.00    0.00    0.00     0.06    0.00    0.01    0.00    0.00
  224    0.10    0.01    0.00    0.00    0.00    0.00  177.00    0.00    2.34    0.02    0.00    0.01    0.00    0.00    0.00     0.05    0.00    0.01    0.00    0.00
  225    0.00    0.00    0.00    0.00    0.00    0.00  177.00    0.00    5.94    0.00    0.00    0.01    0.00    0.00    0.00     0.04    0.00    0.01    0.00    0.00
  226    0.00    0.00    0.00    0.00    0.00    0.00  177.00    0.00    9.15    0.00    0.00    0.01    0.00    0.00    0.00     0.03    0.00    0.00    0.00    0.00
  227    0.00    0.00    0.00    0.00    0.00    0.00  177.00    0.00   10.09    0.00    0.00    0.01    0.00    0.00    0.00     0.03    0.00    0.00    0.00    0.00
  228    0.00    0.00    0.00    0.00    0.00    0.00  177.00    0.00    9.79    0.00    0.00    0.00    0.00    0.00    0.00     0.02    0.00    0.00    0.00    0.00
  229    3.80    1.40    0.00    0.00    0.00    0.00  178.88    0.86    1.75    1.20    0.00    0.01    0.00    0.00    0.00     0.03    0.00    0.00    0.00    0.43
  230    1.10    0.16    0.00    0.00    0.00    0.00  178.96    1.04    2.82    0.35    0.00    0.01    0.00    0.00    0.00     0.03    0.00    0.00    0.00    0.00
  231    0.20    0.03    0.00    0.00    0.00    0.00  179.16    0.00    2.94    0.03    0.00    0.01    0.00    0.00    0.00     0.02    0.00    0.00    0.00    0.00
  232    0.00    0.00    0.00    0.00    0.00    0.00  179.16    0.00    5.01    0.00    0.00    0.01    0.00    0.00    0.00     0.02    0.00    0.00    0.00    0.00
  233    0.20    0.03    0.00    0.00    0.00    0.00  179.36    0.00    2.78    0.03    0.00    0.01    0.00    0.00    0.00     0.02    0.00    0.00    0.00    0.00
  234    0.00    0.00    0.00    0.00    0.00    0.00  179.36    0.00   10.28    0.00    0.00    0.01    0.00    0.00    0.00     0.01    0.00    0.00    0.00    0.00
  235    9.10    4.17    0.00    0.00    0.00    0.00  184.69    0.00    2.85    3.31    0.00    0.01    0.00    0.00    0.00     0.06    0.00    0.01    0.00    0.61
  236    0.40    0.06    0.00    0.00    0.00    0.00  185.10    0.00    1.98    0.92    0.00    0.01    0.00    0.00    0.00     0.05    0.00    0.01    0.00    0.00
  237    0.70    0.10    0.00    0.00    0.00    0.00  184.80    1.01    2.05    0.10    0.00    0.01    0.00    0.00    0.00     0.05    0.00    0.01    0.00    0.00
  238    6.40    0.91    0.00    0.00    0.00    0.00  190.08    1.04    3.06    0.91    0.00    0.01    0.00    0.00    0.00     0.05    0.00    0.01    0.00    0.00
  239   24.30    6.44    0.00    0.00   10.28    0.00  196.69    2.77    3.34    6.44    0.00    0.01    0.00    1.03    0.00     0.14    0.00    0.02    0.00    0.93
  240    0.00    0.00    0.00    0.00    1.90    0.00  191.47    3.31    6.41    0.00    0.00    0.01    0.00    0.19    0.00     0.12    0.00    0.01    0.00    0.00
  241    0.00    0.00    0.00    0.00    0.00    0.00  191.47    0.00    6.96    0.00    0.00    0.01    0.00    0.00    0.00     0.10    0.00    0.01    0.00    0.00
  242    0.00    0.00    0.00    0.00    0.00    0.00  191.47    0.00   11.99    0.00    0.00    0.01    0.00    0.00    0.00     0.08    0.00    0.01    0.00    0.00
  243    0.00    0.00    0.00    0.00    0.00    0.00  191.47    0.00    8.24    0.00    0.00    0.00    0.00    0.00    0.00     0.06    0.00    0.01    0.00    0.00
    8   61.60   19.11    0.07    0.00   12.19    0.00  191.47   13.15  169.83   19.19    0.00    0.24    0.00    1.22    0.00     1.68    0.01    0.21    0.00    3.63
  244    0.00    0.00    0.00    0.00    0.00    0.00  191.47    0.00    7.73    0.00    0.00    0.00    0.00    0.00    0.00     0.05    0.00    0.01    0.00    0.00
  245    0.00    0.00    0.00    0.00    0.00    0.00  191.47    0.00    6.34    0.00    0.00    0.00    0.00    0.00    0.00     0.04    0.00    0.01    0.00    0.00
  246    0.00    0.00    0.00    0.00    0.00    0.00  191.47    0.00    5.84    0.00    0.00    0.00    0.00    0.00    0.00     0.04    0.00    0.00    0.00    0.00
  247   12.80    1.82    0.00    0.00    5.90    0.00  196.67    0.90    0.91    1.83    0.00    0.00    0.00    0.60    0.00     0.06    0.00    0.01    0.00    0.00
  248    3.30    0.47    0.00    0.00    3.75    0.00  194.37    2.25    2.34    0.48    0.00    0.00    0.00    0.38    0.00     0.06    0.00    0.01    0.00    0.00
  249    0.00    0.00    0.00    0.00    0.29    0.00  191.01    3.07    5.92    0.00    0.00    0.00    0.00    0.03    0.00     0.05    0.00    0.01    0.00    0.00
  250    0.30    0.04    0.00    0.00    0.00    0.00  191.32    0.00    3.79    0.05    0.00    0.00    0.00    0.00    0.00     0.04    0.00    0.00    0.00    0.00
  251    0.00    0.00    0.00    0.00    0.00    0.00  191.32    0.00    6.40    0.01    0.00    0.00    0.00    0.00    0.00     0.03    0.00    0.00    0.00    0.00
  252    0.00    0.00    0.00    0.00    0.00    0.00  191.32    0.00    7.23    0.01    0.00    0.00    0.00    0.00    0.00     0.03    0.00    0.00    0.00    0.00
  253    0.50    0.07    0.00    0.00    0.00    0.00  191.83    0.00    3.59    0.08    0.00    0.00    0.00    0.00    0.00     0.02    0.00    0.00    0.00    0.00
  254   93.00   63.06    0.00    0.00   20.23    0.00  202.09    1.70    3.27   63.05    0.05    0.01    0.00    1.99    0.00     1.60    0.00    0.20    0.00   10.46
  255    0.10    0.01    0.00    0.00    5.00    0.00  194.78    2.39    2.61    0.04    0.00    0.01    0.00    0.47    0.00     1.32    0.00    0.16    0.00    0.00
  256    2.10    0.30    0.00    0.00    1.45    0.00  193.81    1.82    1.84    0.31    0.00    0.01    0.00    0.13    0.00     1.09    0.00    0.14    0.00    0.00
  257    0.00    0.00    0.00    0.00    0.00    0.00  193.81    0.00    5.10    0.01    0.00    0.01    0.00    0.00    0.00     0.90    0.00    0.11    0.00    0.00
  258    1.50    0.21    0.00    0.00    0.52    0.00  193.21    2.02    2.04    0.22    0.00    0.01    0.00    0.05    0.00     0.74    0.00    0.09    0.00    0.00
  259    0.00    0.00    0.00    0.00    0.00    0.00  193.21    0.00    6.75    0.01    0.00    0.00    0.00    0.00    0.00     0.61    0.00    0.08    0.00    0.00
  260    0.00    0.00    0.00    0.00    0.00    0.00  193.21    0.00    7.42    0.01    0.00    0.00    0.00    0.00    0.00     0.50    0.00    0.06    0.00    0.00
  261    0.80    0.11    0.00    0.00    0.00    0.00  194.02    0.00    0.95    0.13    0.00    0.00    0.00    0.00    0.00     0.42    0.00    0.05    0.00    0.00
  262    0.00    0.00    0.00    0.00    0.00    0.00  194.02    0.00    6.10    0.01    0.00    0.00    0.00    0.00    0.00     0.34    0.00    0.04    0.00    0.00
  263    6.10    0.87    0.00    0.00    3.90    0.00  195.49    1.20    2.31    0.88    0.00    0.00    0.00    0.37    0.00     0.30    0.00    0.04    0.00    0.00
  264    0.00    0.00    0.00    0.00    0.34    0.00  191.83    3.32    6.38    0.01    0.00    0.00    0.00    0.03    0.00     0.25    0.00    0.03    0.00    0.00
  265    0.00    0.00    0.00    0.00    0.00    0.00  191.83    0.00    6.89    0.01    0.00    0.00    0.00    0.00    0.00     0.20    0.00    0.03    0.00    0.00
  266    0.00    0.00    0.00    0.00    0.00    0.00  191.83    0.00    6.07    0.01    0.00    0.00    0.00    0.00    0.00     0.17    0.00    0.02    0.00    0.00
  267    0.00    0.00    0.00    0.00    0.00    0.00  191.83    0.00    6.92    0.01    0.00    0.00    0.00    0.00    0.00     0.14    0.00    0.02    0.00    0.00
  268    2.30    0.33    0.00    0.00    0.00    0.00  193.38    1.04    2.87    0.34    0.00    0.00    0.00    0.00    0.00     0.12    0.00    0.01    0.00    0.00
  269    2.50    0.36    0.00    0.00    0.64    0.00  192.98    2.30    2.42    0.37    0.00    0.00    0.00    0.06    0.00     0.10    0.00    0.01    0.00    0.00
  270    6.70    0.95    0.00    0.00    3.28    0.00  193.10    3.33    4.39    0.97    0.00    0.00    0.00    0.32    0.00     0.10    0.00    0.01    0.00    0.00
  271    0.30    0.04    0.00    0.00    0.00    0.00  193.40    0.00    3.75    0.06    0.00    0.00    0.00    0.00    0.00     0.09    0.00    0.01    0.00    0.00
  272   12.40    6.74    0.00    0.00    3.54    0.00  194.75    1.79    3.44    5.94    0.00    0.00    0.00    0.35    0.00     0.22    0.00    0.03    0.00    1.80
  273    4.60    0.80    0.00    0.00    3.16    0.00  195.23    1.14    2.19    1.63    0.00    0.00    0.00    0.31    0.00     0.21    0.00    0.03    0.00    0.15
    9  149.30   76.20    0.10    0.00   52.02    0.00  195.23   28.26  133.78   76.49    0.06    0.11    0.00    5.08    0.00     9.84    0.02    1.22    0.00   12.41
  274    0.00    0.00    0.00    0.00    0.16    0.00  191.14    3.93    7.54    0.02    0.00    0.00    0.00    0.02    0.00     0.17    0.00    0.02    0.00    0.00
  275    8.80    1.99    0.00    0.00    2.91    0.00  193.91    2.36    2.53    2.00    0.00    0.00    0.00    0.28    0.00     0.18    0.00    0.02    0.00    0.25
  276    0.80    0.11    0.00    0.05    0.05    0.00  193.47    1.20    2.30    0.18    0.00    0.00    0.00    0.00    0.00     0.15    0.00    0.02    0.00    0.00
  277   31.80    6.45    0.00    0.12   18.07    0.00  201.10    1.74    1.76    6.43    0.00    0.00    0.00    1.68    0.00     0.29    0.00    0.04    0.00    0.81
  278  129.20   96.10    0.01    0.23   29.05    0.00  205.95    1.66    3.18   70.38    0.05    0.00    0.00    2.45    0.00     2.91    0.00    0.36    0.00   15.91
  279   44.30   25.37    0.01    0.36   22.21    0.00  202.06    2.58    2.96   51.89    0.13    0.00    0.00    1.68    0.00     3.22    0.00    0.40    0.00    4.09
  280   11.40    7.00    0.01    0.49    8.68    0.00  197.96    0.81    1.55    7.52    0.01    0.00    0.00    0.62    0.00     2.79    0.00    0.35    0.00    1.60
  281    3.90    0.56    0.01    0.62    5.02    0.00  196.46    0.72    1.37    1.21    0.00    0.00    0.00    0.35    0.00     2.31    0.00    0.29    0.00    0.00
  282    0.00    0.00    0.01    0.74    1.02    0.00  192.12    3.32    6.38    0.77    0.00    0.00    0.00    0.07    0.00     1.90    0.00    0.24    0.00    0.00
  283    0.00    0.00    0.01    0.85    0.00    0.00  192.12    0.00    6.89    0.88    0.00    0.00    0.00    0.00    0.00     1.57    0.00    0.19    0.00    0.00
  284    0.00    0.00    0.01    0.95    0.00    0.00  192.12    0.00    5.88    0.98    0.00    0.00    0.00    0.00    0.00     1.29    0.00    0.16    0.00    0.00
  285    0.00    0.00    0.01    1.04    0.00    0.00  192.12    0.00    6.91    1.07    0.00    0.00    0.00    0.00    0.00     1.06    0.00    0.13    0.00    0.00
  286    1.50    0.21    0.01    1.12    0.00    0.00  192.80    0.83    1.68    1.37    0.00    0.00    0.00    0.00    0.00     0.88    0.00    0.11    0.00    0.00
  287   21.40    9.04    0.01    1.21    7.92    0.00  196.38    2.06    2.07    8.61    0.00    0.00    0.00    0.55    0.00     0.90    0.00    0.11    0.00    1.48
  288   44.60    6.95    0.01    1.33   29.84    0.00  206.99    0.96    1.84    9.99    0.01    0.00    0.00    1.94    0.00     0.90    0.00    0.11    0.00    0.38
  289   29.80    8.36    0.01    1.47   24.84    0.00  203.52    2.26    2.34    9.87    0.00    0.00    0.00    1.44    0.00     0.92    0.00    0.11    0.00    0.86
  290    0.00    0.00    0.01    1.61    6.66    0.00  194.16    2.69    5.15    1.65    0.00    0.00    0.00    0.36    0.00     0.76    0.00    0.09    0.00    0.00
  291    0.00    0.00    0.01    1.73    0.14    0.00  190.86    3.16    6.06    1.78    0.00    0.00    0.00    0.01    0.00     0.62    0.00    0.08    0.00    0.00
  292    0.00    0.00    0.01    1.85    0.00    0.00  190.86    0.00    7.07    1.89    0.00    0.00    0.00    0.00    0.00     0.51    0.00    0.06    0.00    0.00
  293    0.00    0.00    0.01    1.95    0.00    0.00  190.86    0.00    8.43    2.00    0.00    0.00    0.00    0.00    0.00     0.42    0.00    0.05    0.00    0.00
  294    0.40    0.06    0.01    2.04    0.00    0.00  191.27    0.00    1.90    2.15    0.00    0.00    0.00    0.00    0.00     0.35    0.00    0.04    0.00    0.00
  295    0.00    0.00    0.01    2.12    0.00    0.00  191.27    0.00    8.78    2.17    0.00    0.00    0.00    0.00    0.00     0.29    0.00    0.04    0.00    0.00
  296   35.80   14.40    0.01    2.21   13.93    0.00  197.80    3.24    4.23   16.61    0.02    0.00    0.00    0.76    0.00     0.56    0.00    0.07    0.00    0.48
  297   15.60    3.60    0.01    2.31   11.59    0.00  197.48    2.55    2.90    5.58    0.00    0.00    0.00    0.60    0.00     0.53    0.00    0.07    0.00    0.17
  298   37.60   21.64    0.01    2.42   13.96    0.00  198.37    2.69    3.17   24.56    0.03    0.00    0.00    0.69    0.00     0.94    0.00    0.12    0.00    3.64
  299   14.40    2.89    0.01    2.53   11.38    0.00  197.51    2.43    2.66    5.48    0.00    0.00    0.00    0.54    0.00     0.83    0.00    0.10    0.00    0.48
  300    0.00    0.00    0.01    2.63    2.47    0.00  191.92    3.11    5.96    2.70    0.00    0.00    0.00    0.11    0.00     0.68    0.00    0.08    0.00    0.00
  301    0.00    0.00    0.01    2.72    0.00    0.00  191.92    0.00    7.73    2.78    0.00    0.00    0.00    0.00    0.00     0.56    0.00    0.07    0.00    0.00
  302    0.00    0.00    0.01    2.80    0.00    0.00  191.92    0.00    6.77    2.87    0.00    0.00    0.00    0.00    0.00     0.46    0.00    0.06    0.00    0.00
  303    0.00    0.00    0.01    2.87    0.00    0.00  191.92    0.00    6.34    2.94    0.00    0.00    0.00    0.00    0.00     0.38    0.00    0.05    0.00    0.00
  304    0.00    0.00    0.01    2.93    0.00    0.00  191.92    0.00    6.64    3.00    0.00    0.00    0.00    0.00    0.00     0.31    0.00    0.04    0.00    0.00
   10  431.30  204.73    0.26   45.31  209.91    0.00  191.92   44.30  140.96  251.33    0.24    0.06    0.00   14.15    0.00    29.68    0.04    3.67    0.00   30.13
  305    0.00    0.00    0.01    2.98    0.00    0.00  191.92    0.00    6.94    3.05    0.00    0.00    0.00    0.00    0.00     0.26    0.00    0.03    0.00    0.00
  306    5.00    0.71    0.01    3.02    1.36    0.00  193.94    1.65    1.66    3.81    0.00    0.00    0.00    0.07    0.00     0.23    0.00    0.03    0.00    0.00
  307    3.10    0.44    0.01    3.06    1.45    0.00  193.08    2.55    2.90    3.57    0.00    0.00    0.00    0.07    0.00     0.19    0.00    0.02    0.00    0.00
  308    3.20    0.46    0.01    3.09    0.92    0.00  193.16    2.24    2.31    3.62    0.00    0.00    0.00    0.04    0.00     0.17    0.00    0.02    0.00    0.00
  309    1.50    0.21    0.01    3.12    0.00    0.00  193.64    1.04    2.19    3.41    0.00    0.00    0.00    0.00    0.00     0.14    0.00    0.02    0.00    0.00
  310   17.70    3.16    0.01    3.15   10.90    0.00  197.05    2.69    3.15    6.38    0.00    0.00    0.00    0.53    0.00     0.18    0.00    0.02    0.00    0.00
  311    0.90    0.13    0.01    3.18    2.25    0.00  194.90    0.81    1.55    3.39    0.00    0.00    0.00    0.11    0.00     0.15    0.00    0.02    0.00    0.00
  312   17.10    3.09    0.01    3.22   10.87    0.00  198.24    1.48    2.83    6.11    0.00    0.00    0.00    0.50    0.00     0.18    0.00    0.02    0.00    0.06
  313    4.30    0.61    0.01    3.26    5.29    0.00  195.92    1.38    2.63    4.22    0.00    0.00    0.00    0.24    0.00     0.16    0.00    0.02    0.00    0.00
  314    0.00    0.00    0.01    3.29    0.64    0.00  191.58    3.69    7.07    3.37    0.00    0.00    0.00    0.03    0.00     0.13    0.00    0.02    0.00    0.00
  315    0.00    0.00    0.01    3.31    0.00    0.00  191.58    0.00    6.09    3.39    0.00    0.00    0.00    0.00    0.00     0.11    0.00    0.01    0.00    0.00
  316    0.00    0.00    0.01    3.33    0.00    0.00  191.58    0.00    6.70    3.41    0.00    0.00    0.00    0.00    0.00     0.09    0.00    0.01    0.00    0.00
  317    0.00    0.00    0.01    3.34    0.00    0.00  191.58    0.00    5.88    3.42    0.00    0.00    0.00    0.00    0.00     0.07    0.00    0.01    0.00    0.00
  318    0.00    0.00    0.01    3.34    0.00    0.00  191.58    0.00    5.63    3.43    0.00    0.00    0.00    0.00    0.00     0.06    0.00    0.01    0.00    0.00
  319  108.40   81.50    0.01    3.37   17.50    0.00  201.43    1.17    2.24   74.92    0.09    0.00    0.00    0.79    0.00     2.14    0.00    0.26    0.00   13.15
  320    2.90    0.44    0.01    3.39    6.80    0.00  195.74    2.22    2.25   13.96    0.07    0.00    0.00    0.29    0.00     1.79    0.00    0.22    0.00    0.03
  321    0.00    0.00    0.01    3.41    1.24    0.00  190.80    3.69    7.07    3.51    0.00    0.00    0.00    0.05    0.00     1.47    0.00    0.18    0.00    0.00
  322   15.30    7.18    0.01    3.43    3.49    0.00  195.04    1.47    1.48   10.69    0.01    0.00    0.00    0.15    0.00     1.34    0.00    0.17    0.00    0.72
  323    0.00    0.00    0.01    3.45    0.54    0.00  191.04    3.45    6.61    3.56    0.00    0.00    0.00    0.02    0.00     1.11    0.00    0.14    0.00    0.00
  324    0.00    0.00    0.01    3.46    0.00    0.00  191.04    0.00    5.80    3.55    0.00    0.00    0.00    0.00    0.00     0.91    0.00    0.11    0.00    0.00
  325   41.00   19.37    0.01    3.48   13.90    0.00  199.75    1.28    2.44   21.66    0.02    0.00    0.00    0.59    0.00     1.12    0.00    0.14    0.00    2.24
  326   26.30   12.63    0.01    3.51   14.18    0.00  200.07    1.08    1.08   17.51    0.02    0.00    0.00    0.57    0.00     1.17    0.00    0.14    0.00    2.20
  327    0.20    0.03    0.01    3.54    3.93    0.00  195.24    1.10    2.11    3.69    0.00    0.00    0.00    0.15    0.00     0.96    0.00    0.12    0.00    0.00
  328    0.00    0.00    0.01    3.57    0.42    0.00  191.24    3.58    6.85    3.67    0.00    0.00    0.00    0.02    0.00     0.79    0.00    0.10    0.00    0.00
  329    0.00    0.00    0.01    3.59    0.00    0.00  191.24    0.00    7.00    3.69    0.00    0.00    0.00    0.00    0.00     0.65    0.00    0.08    0.00    0.00
  330    0.00    0.00    0.01    3.60    0.00    0.00  191.24    0.00    6.31    3.70    0.00    0.00    0.00    0.00    0.00     0.54    0.00    0.07    0.00    0.00
  331    0.00    0.00    0.01    3.60    0.00    0.00  191.24    0.00    7.52    3.71    0.00    0.00    0.00    0.00    0.00     0.44    0.00    0.05    0.00    0.00
  332    0.00    0.00    0.01    3.60    0.00    0.00  191.24    0.00    7.50    3.71    0.00    0.00    0.00    0.00    0.00     0.37    0.00    0.05    0.00    0.00
  333    0.00    0.00    0.01    3.60    0.00    0.00  191.24    0.00    6.07    3.70    0.00    0.00    0.00    0.00    0.00     0.30    0.00    0.04    0.00    0.00
  334    0.00    0.00    0.01    3.59    0.00    0.00  191.24    0.00    6.21    3.69    0.00    0.00    0.00    0.00    0.00     0.25    0.00    0.03    0.00    0.00
   11  246.90  129.95    0.33  100.87   95.69    0.00  191.24   36.58  136.09  233.51    0.21    0.03    0.00    4.22    0.00    17.48    0.02    2.16    0.00   18.39
  335   17.70    8.96    0.01    3.58    4.68    0.00  195.66    1.37    1.38   12.32    0.01    0.00    0.00    0.19    0.00     0.36    0.00    0.04    0.00    0.85
  336    0.00    0.00    0.01    3.57    0.94    0.00  191.58    3.13    6.00    4.00    0.00    0.00    0.00    0.04    0.00     0.30    0.00    0.04    0.00    0.00
  337    0.00    0.00    0.01    3.55    0.00    0.00  191.58    0.00    6.29    3.66    0.00    0.00    0.00    0.00    0.00     0.25    0.00    0.03    0.00    0.00
  338    0.00    0.00    0.01    3.53    0.00    0.00  191.58    0.00    5.42    3.64    0.00    0.00    0.00    0.00    0.00     0.20    0.00    0.03    0.00    0.00
  339    0.00    0.00    0.01    3.50    0.00    0.00  191.58    0.00    5.32    3.61    0.00    0.00    0.00    0.00    0.00     0.17    0.00    0.02    0.00    0.00
  340    0.00    0.00    0.01    3.48    0.00    0.00  191.58    0.00    4.85    3.59    0.00    0.00    0.00    0.00    0.00     0.14    0.00    0.02    0.00    0.00
  341    0.00    0.00    0.01    3.45    0.00    0.00  191.58    0.00    5.44    3.56    0.00    0.00    0.00    0.00    0.00     0.11    0.00    0.01    0.00    0.00
  342    0.00    0.00    0.01    3.41    0.00    0.00  191.58    0.00    5.97    3.52    0.00    0.00    0.00    0.00    0.00     0.09    0.00    0.01    0.00    0.00
  343    0.00    0.00    0.01    3.38    0.00    0.00  191.58    0.00    5.22    3.49    0.00    0.00    0.00    0.00    0.00     0.08    0.00    0.01    0.00    0.00
  344    0.00    0.00    0.01    3.34    0.00    0.00  191.58    0.00    6.36    3.45    0.00    0.00    0.00    0.00    0.00     0.06    0.00    0.01    0.00    0.00
  345    0.00    0.00    0.01    3.30    0.00    0.00  191.58    0.00    4.73    3.41    0.00    0.00    0.00    0.00    0.00     0.05    0.00    0.01    0.00    0.00
  346    0.00    0.00    0.01    3.26    0.00    0.00  191.58    0.00    4.93    3.37    0.00    0.00    0.00    0.00    0.00     0.04    0.00    0.01    0.00    0.00
  347    0.00    0.00    0.01    3.21    0.00    0.00  191.58    0.00    4.82    3.33    0.00    0.00    0.00    0.00    0.00     0.04    0.00    0.00    0.00    0.00
  348    0.00    0.00    0.01    3.17    0.00    0.00  191.58    0.00    5.19    3.28    0.00    0.00    0.00    0.00    0.00     0.03    0.00    0.00    0.00    0.00
  349    0.00    0.00    0.01    3.12    0.00    0.00  191.58    0.00    4.73    3.23    0.00    0.00    0.00    0.00    0.00     0.02    0.00    0.00    0.00    0.00
  350    0.00    0.00    0.01    3.08    0.00    0.00  191.58    0.00    5.41    3.19    0.00    0.00    0.00    0.00    0.00     0.02    0.00    0.00    0.00    0.00
  351    0.80    0.11    0.01    3.03    0.00    0.00  192.40    0.00    2.18    3.25    0.00    0.00    0.00    0.00    0.00     0.02    0.00    0.00    0.00    0.00
  352   29.00   12.16    0.01    2.99   11.07    0.00  197.89    1.92    1.92   15.27    0.01    0.00    0.00    0.51    0.00     0.25    0.00    0.03    0.00    2.07
  353    0.00    0.00    0.01    2.96    2.68    0.00  192.53    2.68    5.11    3.08    0.00    0.00    0.00    0.12    0.00     0.21    0.00    0.03    0.00    0.00
  354    7.10    1.01    0.01    2.93    3.02    0.00  194.52    1.79    1.80    4.06    0.00    0.00    0.00    0.14    0.00     0.18    0.00    0.02    0.00    0.00
  355   69.90   25.46    0.01    2.95   33.42    0.00  208.49    1.02    1.94   26.47    0.02    0.00    0.00    1.41    0.00     0.65    0.00    0.08    0.00    3.25
  356   43.70   17.68    0.01    3.00   28.91    0.00  206.05    1.50    1.50   19.61    0.02    0.00    0.00    1.07    0.00     0.85    0.00    0.11    0.00    2.73
  357   18.40    5.60    0.01    3.07   18.13    0.00  201.51    1.36    1.37   12.03    0.02    0.00    0.00    0.61    0.00     0.81    0.00    0.10    0.00    0.78
  358    7.40    1.05    0.01    3.14    9.80    0.00  198.36    0.90    1.72    4.32    0.00    0.00    0.00    0.32    0.00     0.68    0.00    0.08    0.00    0.00
  359    0.00    0.00    0.01    3.21    2.34    0.00  193.26    2.76    5.27    3.33    0.00    0.00    0.00    0.07    0.00     0.56    0.00    0.07    0.00    0.00
  360    0.00    0.00    0.01    3.26    0.00    0.00  193.26    0.00    5.99    3.38    0.00    0.00    0.00    0.00    0.00     0.46    0.00    0.06    0.00    0.00
  361    0.00    0.00    0.01    3.31    0.00    0.00  193.26    0.00    4.88    3.43    0.00    0.00    0.00    0.00    0.00     0.38    0.00    0.05    0.00    0.00
  362    0.00    0.00    0.01    3.35    0.00    0.00  193.26    0.00    6.58    3.47    0.00    0.00    0.00    0.00    0.00     0.32    0.00    0.04    0.00    0.00
  363    0.00    0.00    0.01    3.38    0.00    0.00  193.26    0.00    5.02    3.50    0.00    0.00    0.00    0.00    0.00     0.26    0.00    0.03    0.00    0.00
  364    0.00    0.00    0.01    3.40    0.00    0.00  193.26    0.00    5.82    3.53    0.00    0.00    0.00    0.00    0.00     0.21    0.00    0.03    0.00    0.00
  365    0.00    0.00    0.01    3.42    0.00    0.00  193.26    0.00    8.31    3.54    0.00    0.00    0.00    0.00    0.00     0.18    0.00    0.02    0.00    0.00
   12  194.00   72.04    0.33  101.31  114.99    0.00  193.26   18.42  141.43  176.91    0.08    0.02    0.00    4.48    0.00     8.01    0.01    0.99    0.00    9.67

 2001 1429.70  596.38    1.23  247.48  484.79    0.00  193.26  382.28 1935.02  851.90    0.60    1.05    0.01   29.15  127.83    67.92    0.11    8.40    0.00   98.89
1
    SWAT Sep 7    VER 2018/Rev 670                                                  

    General Input/Output section (file.cio):                                        
    02/05/2024 12:00:00 AM ARCGIS-SWAT interface AV                                 
                                                                                    
    FINAL VALUES

1
    SWAT Sep 7    VER 2018/Rev 670                                                  

    General Input/Output section (file.cio):                                        
    02/05/2024 12:00:00 AM ARCGIS-SWAT interface AV                                 
                                                                                    
                                            Average Plant Values (kg/ha)

  HRU       1 SUB   1 BERM  Yld =  7235.3 BIOM =  10232.8

    HRU STATISTICS

                AVE ANNUAL VALUES

   HRU  SUB  SOIL       AREAkm2    CN     AWCmm   USLE_LS  IRRmm  AUTONkh AUTOPkh  MIXEF PRECmm SURQGENmm   GWQmm    ETmm   SEDth  NO3kgh  ORGNkgh BIOMth   YLDth  SURQmm
      1   1   Habitati   .830E+03   86.22  195.00    0.56    0.00   79.84    0.00    0.20 1429.70  596.38  248.71  382.28    0.60    1.07   67.92   10.23    7.24  596.38



                AVE MONTHLY BASIN VALUES
                   SNOW                      WATER               SED
  MON     RAIN     FALL   SURF Q    LAT Q    YIELD       ET    YIELD      PET
          (MM)     (MM)     (MM)     (MM)     (MM)     (MM)   (T/HA)     (MM)
    1     0.00     0.00     0.00     0.00     0.00     0.00     0.00   169.80
    2     0.00     0.00     0.00     0.00     0.00     0.00     0.00   164.56
    3     0.00     0.00     0.00     0.00     0.00    73.17     0.00   186.24
    4    98.90     0.00    21.30     0.02    21.32   101.96     0.00   184.37
    5    14.10     0.00     2.10     0.03     2.13    26.03     0.00   185.17
    6    57.40     0.00    20.25     0.03    20.28    33.08     0.00   180.22
    7   176.20     0.00    50.70     0.05    50.75     7.34     0.00   142.56
    8    61.60     0.00    19.11     0.07    19.19    13.15     0.00   169.83
    9   149.30     0.00    76.20     0.10    76.49    28.26     0.06   133.78
   10   431.30     0.00   204.73     0.26   251.33    44.30     0.24   140.96
   11   246.90     0.00   129.95     0.33   233.51    36.58     0.21   136.09
   12   194.00     0.00    72.04     0.33   176.91    18.42     0.08   141.43

     AVE ANNUAL BASIN STRESS DAYS
               WATER STRESS DAYS =    27.54
               TEMPERATURE STRESS DAYS =     7.00
               NITROGEN STRESS DAYS =    16.96
               PHOSPHORUS STRESS DAYS =     0.00
               AERATION STRESS DAYS =     0.00
1
    SWAT Sep 7    VER 2018/Rev 670                                                  

    General Input/Output section (file.cio):                                        
    02/05/2024 12:00:00 AM ARCGIS-SWAT interface AV                                 
                                                                                    
         AVE ANNUAL BASIN VALUES

              PRECIP =   1429.7 MM
              SNOW FALL =    0.00 MM
              SNOW MELT =     0.00 MM
              SUBLIMATION =     0.00 MM
              SURFACE RUNOFF Q =   596.38 MM
              LATERAL SOIL Q =    1.23 MM
              TILE Q =     0.00 MM
              GROUNDWATER (SHAL AQ) Q =   247.48 MM
              GROUNDWATER (DEEP AQ) Q =     6.81 MM
              REVAP (SHAL AQ => SOIL/PLANTS) =   38.70 MM
              DEEP AQ RECHARGE =    18.24 MM
              TOTAL AQ RECHARGE =  364.72 MM
              TOTAL WATER YLD =   851.90 MM
              PERCOLATION OUT OF SOIL =  484.79 MM
              ET =    382.3 MM
              PET =   1935.0MM
              TRANSMISSION LOSSES =     0.00 MM
              SEPTIC INFLOW =       0.00 MM
              TOTAL SEDIMENT LOADING =      0.60 T/HA
              TILE FROM IMPOUNDED WATER =     0.000 (MM)
              EVAPORATION FROM IMPOUNDED WATER =     0.000 (MM)
              SEEPAGE INTO SOIL FROM IMPOUNDED WATER =    0.000 (MM)
              OVERFLOW FROM IMPOUNDED WATER =    0.000 (MM)
1
    SWAT Sep 7    VER 2018/Rev 670                                                  

    General Input/Output section (file.cio):                                        
    02/05/2024 12:00:00 AM ARCGIS-SWAT interface AV                                 
                                                                                    
              AVE ANNUAL BASIN VALUES


              NUTRIENTS
                   ORGANIC N =    67.919 (KG/HA)
                   ORGANIC P =     8.399 (KG/HA)
                   NO3 YIELD (SQ) =     1.054 (KG/HA)
                   NO3 YIELD (LAT) =    0.012 (KG/HA)
                   NO3 YIELD (TILE) =    0.000 (KG/HA)
                   SOLP YIELD (TILE) =    0.000(KG/HA)
                   SOLP YIELD (SURF INLET RISER) =    0.000 (KG/HA)
                   SOL P YIELD =    0.114 (KG/HA)
                   NO3 LEACHED =    29.145 (KG/HA)
                   P LEACHED =     0.198 (KG/HA)
                   N UPTAKE =   127.834 (KG/HA)
                   P UPTAKE =   21.265 (KG/HA)
                   NO3 YIELD (GWQ) =     0.404 (KG/HA)
                   ACTIVE TO SOLUTION P FLOW =         8.853 (KG/HA)
                   ACTIVE TO STABLE P FLOW =        66.964 (KG/HA)
                   N FERTILIZER APPLIED =    79.844 (KG/HA)
                   P FERTILIZER APPLIED =     0.000 (KG/HA)
                   N FIXATION =     0.000 (KG/HA)
                   DENITRIFICATION =     0.000 (KG/HA)
                   HUMUS MIN ON ACTIVE ORG N =    29.556 (KG/HA)
                   ACTIVE TO STABLE ORG N =    -2.087 (KG/HA)
                   HUMUS MIN ON ACTIVE ORG P =    5.067 (KG/HA)
                   MIN FROM FRESH ORG N =   24.434 (KG/HA)
                   MIN FROM FRESH ORG P =    4.064 (KG/HA)
                   NO3 IN RAINFALL =     0.000 (KG/HA)
                   INITIAL NO3 IN SOIL =      36.907 (KG/HA)
                   FINAL NO3 IN SOIL =         7.758 (KG/HA)
                   INITIAL ORG N IN SOIL =   16500.000 (KG/HA)
                   FINAL ORG N IN SOIL =     16407.721 (KG/HA)
                   INITIAL MIN P IN SOIL =    3423.068 (KG/HA)
                   FINAL MIN P IN SOIL =      3396.691 (KG/HA)
                   INITIAL ORG P IN SOIL =    2021.250 (KG/HA)
                   FINAL ORG P IN SOIL =    2008.683 (KG/HA)
                   NO3 IN FERT =    79.844 (KG/HA)
                   AMMONIA IN FERT =     0.000 (KG/HA)
                   ORG N IN FERT =     0.000 (KG/HA)
                   MINERAL P IN FERT =     0.000 (KG/HA)
                   ORG P IN FERT =     0.000 (KG/HA)
                   N REMOVED IN YIELD =   102.267 (KG/HA)
                   P REMOVED IN YIELD =    17.012 (KG/HA)
                   AMMONIA VOLATILIZATION =     0.000 (KG/HA)
                   AMMONIA NITRIFICATION =      0.000 (KG/HA)
                   NO3 EVAP-LAYER 2 TO 1 =    0.793

                   DIE-GRO P Q =           0.0 (No/M2)
                   DIE-GRO LP Q =           0.0 (No/M2)
                   DIE-GRO P SED =          0.0 (No/M2)
                   DIE-GRO LP SED =          0.0 (No/M2)
                   BACT P RUNOFF =          0.0 (No/M2)
                   BACT LP RUNOFF =          0.0 (No/M2)
                   BACT P SEDIMENT =          0.0 (No/M2)
                   BACT LP SEDIMENT =          0.0 (No/M2)
                   BACT P INCORP =          0.0 (No/M2)
                   BACT LP INCORP =          0.0 (No/M2)

                   NITRATE SEPTIC =         0.00 (kg/ha)
                   AMMONIA SEPTIC =         0.00 (kg/ha)
                   ORG N SEPTIC =         0.00 (kg/ha)
                   FRESH ORGN SEPTIC =         0.00 (kg/ha)
                   ORG P SEPTIC =         0.00 (kg/ha)
                   FRESH ORGP SEPTIC =         0.00 (kg/ha)
                   SOL P SEPTIC =         0.00 (kg/ha)
                   BOD SEPTIC =         0.00 (kg/ha)
