1
    SWAT Sep 7    VER 2018/Rev 670                                                                       0/ 0/   0      0: 0: 0

    General Input/Output section (file.cio):                                        
    02/05/2024 12:00:00 AM ARCGIS-SWAT interface AV                                 
                                                                                    


LULC  HRU       GIS  SUB  MGT  MON   AREAkm2  PRECIPmm SNOFALLmm SNOMELTmm     IRRmm     PETmm      ETmm SW_INITmm  SW_ENDmm    PERCmm GW_RCHGmm DA_RCHGmm   REVAPmm  SA_IRRmm  DA_IRRmm   SA_STmm   DA_STmmSURQ_GENmmSURQ_CNTmm   TLOSSmm LATQGENmm    GW_Qmm    WYLDmm   DAILYCN TMP_AVdgC TMP_MXdgC TMP_MNdgCSOL_TMPdgCSOLARMJ/m2  SYLDt/ha  USLEt/haN_APPkg/haP_APPkg/haNAUTOkg/haPAUTOkg/ha NGRZkg/ha PGRZkg/haNCFRTkg/haPCFRTkg/haNRAINkg/ha NFIXkg/ha F-MNkg/ha A-MNkg/ha A-SNkg/ha F-MPkg/haAO-LPkg/ha L-APkg/ha A-SPkg/ha DNITkg/ha  NUPkg/ha  PUPkg/ha ORGNkg/ha ORGPkg/ha SEDPkg/haNSURQkg/haNLATQkg/ha NO3Lkg/haNO3GWkg/ha SOLPkg/ha P_GWkg/ha    W_STRS  TMP_STRS    N_STRS    P_STRS  BIOMt/ha       LAI   YLDt/ha  BACTPct   BACTLPct WTAB CLIm WTAB SOLm     SNOmm CMUPkg/haCMTOTkg/ha   QTILEmm TNO3kg/ha LNO3kg/ha  GW_Q_Dmm LATQCNTmm TVAPkg/ha
BERM    1 000010001    1    0    1.83023E+03     0.000     0.000     0.000     0.000     5.096     0.000   131.142   131.142     0.000     0.000     0.000     0.102     0.000     0.000   999.898  2000.000     0.000     0.000     0.000     0.000     0.000     0.000    91.262    26.308    31.019    21.597    25.466    25.892     0.000     0.000     0.000     0.000     0.000     0.000     0.000     0.000     0.000     0.000     0.000     0.000     0.000     0.081     0.000     0.000     0.014     0.002     3.887    24.919     0.000     0.000     0.000     0.000     0.000     0.000     0.000     0.000     0.000     0.000     0.000     0.000     0.000     0.000     0.000     0.000     0.000     0.000 .00000E+00 .00000E+00 0.970E+00 0.361E+04 0.000E+00 0.154E+04 0.231E+06 0.000E+00 0.000E+00 0.000E+00     0.000     0.000     0.000
BERM    1 000010001    1    0    2.83023E+03     0.000     0.000     0.000     0.000     7.029     0.000   131.142   131.142     0.000     0.000     0.000     0.141     0.000     0.000   999.758  2000.000     0.000     0.000     0.000     0.000     0.000     0.000    91.262    25.438    30.755    20.121    25.900    26.146     0.000     0.000     0.000     0.000     0.000     0.000     0.000     0.000     0.000     0.000     0.000     0.000     0.000     0.082    -0.000     0.000     0.014     0.260     3.523     8.310     0.000     0.000     0.000     0.000     0.000     0.000     0.000     0.000     0.000     0.000     0.000     0.000     0.000     0.000     0.000     0.000     0.000     0.000 .00000E+00 .00000E+00 0.112E+01 0.361E+04 0.000E+00 0.154E+04 0.231E+06 0.000E+00 0.000E+00 0.000E+00     0.000     0.000     0.000
BERM    1 000010001    1    0    3.83023E+03     0.000     0.000     0.000     0.000     5.783     0.000   131.142   131.142     0.000     0.000     0.000     0.116     0.000     0.000   999.642  2000.000     0.000     0.000     0.000     0.000     0.000     0.000    91.262    25.223    29.835    20.610    26.214    26.321     0.000     0.000     0.000     0.000     0.000     0.000     0.000     0.000     0.000     0.000     0.000     0.000     0.000     0.083    -0.000     0.000     0.014     0.246     3.217     2.709     0.000     0.000     0.000     0.000     0.000     0.000     0.000     0.000     0.000     0.000     0.000     0.000     0.000     0.000     0.000     0.000     0.000     0.000 .00000E+00 .00000E+00 0.126E+01 0.361E+04 0.000E+00 0.154E+04 0.231E+06 0.000E+00 0.000E+00 0.000E+00     0.000     0.000     0.000
BERM    1 000010001    1    0    4.83023E+03     0.000     0.000     0.000     0.000     5.315     0.000   131.142   131.142     0.000     0.000     0.000     0.106     0.000     0.000   999.536  2000.000     0.000     0.000     0.000     0.000     0.000     0.000    91.262    24.929    30.649    19.209    26.443    25.492     0.000     0.000     0.000     0.000     0.000     0.000     0.000     0.000     0.000     0.000     0.000     0.000     0.000     0.083    -0.000     0.000     0.014     0.241     2.940     0.902     0.000     0.000     0.000     0.000     0.000     0.000     0.000     0.000     0.000     0.000     0.000     0.000     0.000     0.000     0.000     0.000     0.000     0.000 .00000E+00 .00000E+00 0.138E+01 0.361E+04 0.000E+00 0.154E+04 0.231E+06 0.000E+00 0.000E+00 0.000E+00     0.000     0.000     0.000
BERM    1 000010001    1    0    5.83023E+03     0.000     0.000     0.000     0.000     5.459     0.000   131.142   131.142     0.000     0.000     0.000     0.109     0.000     0.000   999.426  2000.000     0.000     0.000     0.000     0.000     0.000     0.000    91.262    24.599    30.614    18.584    26.603    25.688     0.000     0.000     0.000     0.000     0.000     0.000     0.000     0.000     0.000     0.000     0.000     0.000     0.000     0.084    -0.000     0.000     0.014     0.273     2.688     0.335     0.000     0.000     0.000     0.000     0.000     0.000     0.000     0.000     0.000     0.000     0.000     0.000     0.000     0.000     0.000     0.000     0.000     0.000 .00000E+00 .00000E+00 0.150E+01 0.361E+04 0.000E+00 0.154E+04 0.231E+06 0.000E+00 0.000E+00 0.000E+00     0.000     0.000     0.000
BERM    1 000010001    1    0    6.83023E+03     0.000     0.000     0.000     0.000     5.572     0.000   131.142   131.142     0.000     0.000     0.000     0.111     0.000     0.000   999.315  2000.000     0.000     0.000     0.000     0.000     0.000     0.000    91.262    25.509    30.655    20.362    26.818    26.431     0.000     0.000     0.000     0.000     0.000     0.000     0.000     0.000     0.000     0.000     0.000     0.000     0.000     0.084    -0.000     0.000     0.014     0.316     2.464     0.161     0.000     0.000     0.000     0.000     0.000     0.000     0.000     0.000     0.000     0.000     0.000     0.000     0.000     0.000     0.000     0.000     0.000     0.000 .00000E+00 .00000E+00 0.160E+01 0.361E+04 0.000E+00 0.154E+04 0.231E+06 0.000E+00 0.000E+00 0.000E+00     0.000     0.000     0.000
BERM    1 000010001    1    0    7.83023E+03     0.000     0.000     0.000     0.000     5.725     0.000   131.142   131.142     0.000     0.000     0.000     0.115     0.000     0.000   999.200  2000.000     0.000     0.000     0.000     0.000     0.000     0.000    91.262    24.740    30.435    19.044    26.921    26.205     0.000     0.000     0.000     0.000     0.000     0.000     0.000     0.000     0.000     0.000     0.000     0.000     0.000     0.084    -0.000     0.000     0.014     0.349     2.265     0.107     0.000     0.000     0.000     0.000     0.000     0.000     0.000     0.000     0.000     0.000     0.000     0.000     0.000     0.000     0.000     0.000     0.000     0.000 .00000E+00 .00000E+00 0.169E+01 0.361E+04 0.000E+00 0.154E+04 0.231E+06 0.000E+00 0.000E+00 0.000E+00     0.000     0.000     0.000
BERM    1 000010001    1    0    8.83023E+03     0.000     0.000     0.000     0.000     5.537     0.000   131.142   131.142     0.000     0.000     0.000     0.111     0.000     0.000   999.090  2000.000     0.000     0.000     0.000     0.000     0.000     0.000    91.262    26.707    31.572    21.841    27.178    25.867     0.000     0.000     0.000     0.000     0.000     0.000     0.000     0.000     0.000     0.000     0.000     0.000     0.000     0.085    -0.000     0.000     0.015     0.374     2.088     0.092     0.000     0.000     0.000     0.000     0.000     0.000     0.000     0.000     0.000     0.000     0.000     0.000     0.000     0.000     0.000     0.000     0.000     0.000 .00000E+00 .00000E+00 0.177E+01 0.361E+04 0.000E+00 0.154E+04 0.231E+06 0.000E+00 0.000E+00 0.000E+00     0.000     0.000     0.000
BERM    1 000010001    1    0    9.83023E+03     0.000     0.000     0.000     0.000     5.233     0.000   131.142   131.142     0.000     0.000     0.000     0.105     0.000     0.000   998.985  2000.000     0.000     0.000     0.000     0.000     0.000     0.000    91.262    24.575    29.054    20.095    27.158    25.711     0.000     0.000     0.000     0.000     0.000     0.000     0.000     0.000     0.000     0.000     0.000     0.000     0.000     0.085    -0.000     0.000     0.015     0.393     1.931     0.087     0.000     0.000     0.000     0.000     0.000     0.000     0.000     0.000     0.000     0.000     0.000     0.000     0.000     0.000     0.000     0.000     0.000     0.000 .00000E+00 .00000E+00 0.184E+01 0.361E+04 0.000E+00 0.154E+04 0.231E+06 0.000E+00 0.000E+00 0.000E+00     0.000     0.000     0.000
BERM    1 000010001    1    0   10.83023E+03     0.000     0.000     0.000     0.000     6.236     0.000   131.142   131.142     0.000     0.000     0.000     0.125     0.000     0.000   998.860  2000.000     0.000     0.000     0.000     0.000     0.000     0.000    91.262    24.885    30.279    19.492    27.187    25.464     0.000     0.000     0.000     0.000     0.000     0.000     0.000     0.000     0.000     0.000     0.000     0.000     0.000     0.085    -0.000     0.000     0.015     0.406     1.790     0.085     0.000     0.000     0.000     0.000     0.000     0.000     0.000     0.000     0.000     0.000     0.000     0.000     0.000     0.000     0.000     0.000     0.000     0.000 .00000E+00 .00000E+00 0.191E+01 0.361E+04 0.000E+00 0.154E+04 0.231E+06 0.000E+00 0.000E+00 0.000E+00     0.000     0.000     0.000
BERM    1 000010001    1    0   11.83023E+03     0.000     0.000     0.000     0.000     5.052     0.000   131.142   131.142     0.000     0.000     0.000     0.101     0.000     0.000   998.759  2000.000     0.000     0.000     0.000     0.000     0.000     0.000    91.262    26.393    31.364    21.423    27.354    25.468     0.000     0.000     0.000     0.000     0.000     0.000     0.000     0.000     0.000     0.000     0.000     0.000     0.000     0.085    -0.000     0.000     0.015     0.414     1.664     0.085     0.000     0.000     0.000     0.000     0.000     0.000     0.000     0.000     0.000     0.000     0.000     0.000     0.000     0.000     0.000     0.000     0.000     0.000 .00000E+00 .00000E+00 0.197E+01 0.361E+04 0.000E+00 0.154E+04 0.231E+06 0.000E+00 0.000E+00 0.000E+00     0.000     0.000     0.000
BERM    1 000010001    1    0   12.83023E+03     0.000     0.000     0.000     0.000     5.211     0.000   131.142   131.142     0.000     0.000     0.000     0.104     0.000     0.000   998.655  2000.000     0.000     0.000     0.000     0.000     0.000     0.000    91.262    24.464    30.775    18.152    27.334    26.150     0.000     0.000     0.000     0.000     0.000     0.000     0.000     0.000     0.000     0.000     0.000     0.000     0.000     0.085    -0.000     0.000     0.015     0.418     1.551     0.085     0.000     0.000     0.000     0.000     0.000     0.000     0.000     0.000     0.000     0.000     0.000     0.000     0.000     0.000     0.000     0.000     0.000     0.000 .00000E+00 .00000E+00 0.202E+01 0.361E+04 0.000E+00 0.154E+04 0.231E+06 0.000E+00 0.000E+00 0.000E+00     0.000     0.000     0.000
BERM    1 000010001    1    0   13.83023E+03     0.000     0.000     0.000     0.000     4.877     0.000   131.142   131.142     0.000     0.000     0.000     0.098     0.000     0.000   998.557  2000.000     0.000     0.000     0.000     0.000     0.000     0.000    91.262    25.253    30.178    20.328    27.360    25.702     0.000     0.000     0.000     0.000     0.000     0.000     0.000     0.000     0.000     0.000     0.000     0.000     0.000     0.085    -0.000     0.000     0.015     0.419     1.449     0.085     0.000     0.000     0.000     0.000     0.000     0.000     0.000     0.000     0.000     0.000     0.000     0.000     0.000     0.000     0.000     0.000     0.000     0.000 .00000E+00 .00000E+00 0.207E+01 0.361E+04 0.000E+00 0.154E+04 0.231E+06 0.000E+00 0.000E+00 0.000E+00     0.000     0.000     0.000
BERM    1 000010001    1    0   14.83023E+03     0.000     0.000     0.000     0.000     5.655     0.000   131.142   131.142     0.000     0.000     0.000     0.113     0.000     0.000   998.444  2000.000     0.000     0.000     0.000     0.000     0.000     0.000    91.262    24.366    29.240    19.492    27.293    25.868     0.000     0.000     0.000     0.000     0.000     0.000     0.000     0.000     0.000     0.000     0.000     0.000     0.000     0.085    -0.001     0.000     0.015     0.418     1.357     0.085     0.000     0.000     0.000     0.000     0.000     0.000     0.000     0.000     0.000     0.000     0.000     0.000     0.000     0.000     0.000     0.000     0.000     0.000 .00000E+00 .00000E+00 0.211E+01 0.361E+04 0.000E+00 0.154E+04 0.231E+06 0.000E+00 0.000E+00 0.000E+00     0.000     0.000     0.000
BERM    1 000010001    1    0   15.83023E+03     0.000     0.000     0.000     0.000     5.545     0.000   131.142   131.142     0.000     0.000     0.000     0.111     0.000     0.000   998.333  2000.000     0.000     0.000     0.000     0.000     0.000     0.000    91.262    24.822    30.067    19.578    27.286    25.476     0.000     0.000     0.000     0.000     0.000     0.000     0.000     0.000     0.000     0.000     0.000     0.000     0.000     0.085    -0.001     0.000     0.015     0.414     1.273     0.085     0.000     0.000     0.000     0.000     0.000     0.000     0.000     0.000     0.000     0.000     0.000     0.000     0.000     0.000     0.000     0.000     0.000     0.000 .00000E+00 .00000E+00 0.215E+01 0.361E+04 0.000E+00 0.154E+04 0.231E+06 0.000E+00 0.000E+00 0.000E+00     0.000     0.000     0.000
BERM    1 000010001    1    0   16.83023E+03     0.000     0.000     0.000     0.000     5.955     0.000   131.142   131.142     0.000     0.000     0.000     0.119     0.000     0.000   998.214  2000.000     0.000     0.000     0.000     0.000     0.000     0.000    91.262    24.916    30.495    19.336    27.311    26.246     0.000     0.000     0.000     0.000     0.000     0.000     0.000     0.000     0.000     0.000     0.000     0.000     0.000     0.085    -0.001     0.000     0.015     0.409     1.198     0.085     0.000     0.000     0.000     0.000     0.000     0.000     0.000     0.000     0.000     0.000     0.000     0.000     0.000     0.000     0.000     0.000     0.000     0.000 .00000E+00 .00000E+00 0.218E+01 0.361E+04 0.000E+00 0.154E+04 0.231E+06 0.000E+00 0.000E+00 0.000E+00     0.000     0.000     0.000
BERM    1 000010001    1    0   17.83023E+03     0.000     0.000     0.000     0.000     4.903     0.000   131.142   131.142     0.000     0.000     0.000     0.098     0.000     0.000   998.116  2000.000     0.000     0.000     0.000     0.000     0.000     0.000    91.262    25.480    30.424    20.536    27.363    25.601     0.000     0.000     0.000     0.000     0.000     0.000     0.000     0.000     0.000     0.000     0.000     0.000     0.000     0.085    -0.001     0.000     0.015     0.402     1.129     0.085     0.000     0.000     0.000     0.000     0.000     0.000     0.000     0.000     0.000     0.000     0.000     0.000     0.000     0.000     0.000     0.000     0.000     0.000 .00000E+00 .00000E+00 0.222E+01 0.361E+04 0.000E+00 0.154E+04 0.231E+06 0.000E+00 0.000E+00 0.000E+00     0.000     0.000     0.000
BERM    1 000010001    1    0   18.83023E+03     0.000     0.000     0.000     0.000     5.332     0.000   131.142   131.142     0.000     0.000     0.000     0.107     0.000     0.000   998.010  2000.000     0.000     0.000     0.000     0.000     0.000     0.000    91.262    25.636    30.983    20.288    27.432    25.767     0.000     0.000     0.000     0.000     0.000     0.000     0.000     0.000     0.000     0.000     0.000     0.000     0.000     0.085    -0.001     0.000     0.015     0.395     1.066     0.085     0.000     0.000     0.000     0.000     0.000     0.000     0.000     0.000     0.000     0.000     0.000     0.000     0.000     0.000     0.000     0.000     0.000     0.000 .00000E+00 .00000E+00 0.224E+01 0.361E+04 0.000E+00 0.154E+04 0.231E+06 0.000E+00 0.000E+00 0.000E+00     0.000     0.000     0.000
BERM    1 000010001    1    0   19.83023E+03     0.000     0.000     0.000     0.000     4.849     0.000   131.142   131.142     0.000     0.000     0.000     0.097     0.000     0.000   997.913  2000.000     0.000     0.000     0.000     0.000     0.000     0.000    91.262    25.060    29.241    20.878    27.408    25.964     0.000     0.000     0.000     0.000     0.000     0.000     0.000     0.000     0.000     0.000     0.000     0.000     0.000     0.085    -0.001     0.000     0.015     0.386     1.008     0.085     0.000     0.000     0.000     0.000     0.000     0.000     0.000     0.000     0.000     0.000     0.000     0.000     0.000     0.000     0.000     0.000     0.000     0.000 .00000E+00 .00000E+00 0.227E+01 0.361E+04 0.000E+00 0.154E+04 0.231E+06 0.000E+00 0.000E+00 0.000E+00     0.000     0.000     0.000
BERM    1 000010001    1    0   20.83023E+03     0.000     0.000     0.000     0.000     4.741     0.000   131.142   131.142     0.000     0.000     0.000     0.095     0.000     0.000   997.818  2000.000     0.000     0.000     0.000     0.000     0.000     0.000    91.262    23.964    28.661    19.267    27.290    26.074     0.000     0.000     0.000     0.000     0.000     0.000     0.000     0.000     0.000     0.000     0.000     0.000     0.000     0.085    -0.001     0.000     0.015     0.377     0.955     0.085     0.000     0.000     0.000     0.000     0.000     0.000     0.000     0.000     0.000     0.000     0.000     0.000     0.000     0.000     0.000     0.000     0.000     0.000 .00000E+00 .00000E+00 0.229E+01 0.361E+04 0.000E+00 0.154E+04 0.231E+06 0.000E+00 0.000E+00 0.000E+00     0.000     0.000     0.000
BERM    1 000010001    1    0   21.83023E+03     0.000     0.000     0.000     0.000     6.454     0.000   131.142   131.142     0.000     0.000     0.000     0.129     0.000     0.000   997.689  2000.000     0.000     0.000     0.000     0.000     0.000     0.000    91.262    24.565    30.238    18.893    27.265    25.400     0.000     0.000     0.000     0.000     0.000     0.000     0.000     0.000     0.000     0.000     0.000     0.000     0.000     0.085    -0.001     0.000     0.015     0.367     0.907     0.085     0.000     0.000     0.000     0.000     0.000     0.000     0.000     0.000     0.000     0.000     0.000     0.000     0.000     0.000     0.000     0.000     0.000     0.000 .00000E+00 .00000E+00 0.231E+01 0.361E+04 0.000E+00 0.154E+04 0.231E+06 0.000E+00 0.000E+00 0.000E+00     0.000     0.000     0.000
BERM    1 000010001    1    0   22.83023E+03     0.000     0.000     0.000     0.000     6.660     0.000   131.142   131.142     0.000     0.000     0.000     0.133     0.000     0.000   997.556  2000.000     0.000     0.000     0.000     0.000     0.000     0.000    91.262    24.558    30.035    19.082    27.244    25.601     0.000     0.000     0.000     0.000     0.000     0.000     0.000     0.000     0.000     0.000     0.000     0.000     0.000     0.085    -0.001     0.000     0.015     0.357     0.862     0.085     0.000     0.000     0.000     0.000     0.000     0.000     0.000     0.000     0.000     0.000     0.000     0.000     0.000     0.000     0.000     0.000     0.000     0.000 .00000E+00 .00000E+00 0.233E+01 0.361E+04 0.000E+00 0.154E+04 0.231E+06 0.000E+00 0.000E+00 0.000E+00     0.000     0.000     0.000
BERM    1 000010001    1    0   23.83023E+03     0.000     0.000     0.000     0.000     4.786     0.000   131.142   131.142     0.000     0.000     0.000     0.096     0.000     0.000   997.460  2000.000     0.000     0.000     0.000     0.000     0.000     0.000    91.262    23.250    28.963    17.536    27.103    25.769     0.000     0.000     0.000     0.000     0.000     0.000     0.000     0.000     0.000     0.000     0.000     0.000     0.000     0.084    -0.001     0.000     0.014     0.347     0.821     0.084     0.000     0.000     0.000     0.000     0.000     0.000     0.000     0.000     0.000     0.000     0.000     0.000     0.000     0.000     0.000     0.000     0.000     0.000 .00000E+00 .00000E+00 0.235E+01 0.361E+04 0.000E+00 0.154E+04 0.231E+06 0.000E+00 0.000E+00 0.000E+00     0.000     0.000     0.000
BERM    1 000010001    1    0   24.83023E+03     0.000     0.000     0.000     0.000     5.138     0.000   131.142   131.142     0.000     0.000     0.000     0.103     0.000     0.000   997.357  2000.000     0.000     0.000     0.000     0.000     0.000     0.000    91.262    23.710    29.480    17.941    27.039    25.843     0.000     0.000     0.000     0.000     0.000     0.000     0.000     0.000     0.000     0.000     0.000     0.000     0.000     0.084    -0.001     0.000     0.014     0.336     0.782     0.084     0.000     0.000     0.000     0.000     0.000     0.000     0.000     0.000     0.000     0.000     0.000     0.000     0.000     0.000     0.000     0.000     0.000     0.000 .00000E+00 .00000E+00 0.236E+01 0.361E+04 0.000E+00 0.154E+04 0.231E+06 0.000E+00 0.000E+00 0.000E+00     0.000     0.000     0.000
BERM    1 000010001    1    0   25.83023E+03     0.000     0.000     0.000     0.000     6.316     0.000   131.142   131.142     0.000     0.000     0.000     0.126     0.000     0.000   997.231  2000.000     0.000     0.000     0.000     0.000     0.000     0.000    91.262    23.785    28.641    18.930    26.976    25.794     0.000     0.000     0.000     0.000     0.000     0.000     0.000     0.000     0.000     0.000     0.000     0.000     0.000     0.084    -0.001     0.000     0.014     0.326     0.747     0.084     0.000     0.000     0.000     0.000     0.000     0.000     0.000     0.000     0.000     0.000     0.000     0.000     0.000     0.000     0.000     0.000     0.000     0.000 .00000E+00 .00000E+00 0.238E+01 0.361E+04 0.000E+00 0.154E+04 0.231E+06 0.000E+00 0.000E+00 0.000E+00     0.000     0.000     0.000
BERM    1 000010001    1    0   26.83023E+03     0.000     0.000     0.000     0.000     5.599     0.000   131.142   131.142     0.000     0.000     0.000     0.112     0.000     0.000   997.119  2000.000     0.000     0.000     0.000     0.000     0.000     0.000    91.262    24.501    28.581    20.420    26.986    26.047     0.000     0.000     0.000     0.000     0.000     0.000     0.000     0.000     0.000     0.000     0.000     0.000     0.000     0.084    -0.001     0.000     0.014     0.316     0.714     0.084     0.000     0.000     0.000     0.000     0.000     0.000     0.000     0.000     0.000     0.000     0.000     0.000     0.000     0.000     0.000     0.000     0.000     0.000 .00000E+00 .00000E+00 0.239E+01 0.361E+04 0.000E+00 0.154E+04 0.231E+06 0.000E+00 0.000E+00 0.000E+00     0.000     0.000     0.000
BERM    1 000010001    1    0   27.83023E+03     0.000     0.000     0.000     0.000     5.041     0.000   131.142   131.142     0.000     0.000     0.000     0.101     0.000     0.000   997.018  2000.000     0.000     0.000     0.000     0.000     0.000     0.000    91.262    24.167    28.463    19.870    26.964    26.030     0.000     0.000     0.000     0.000     0.000     0.000     0.000     0.000     0.000     0.000     0.000     0.000     0.000     0.084    -0.001     0.000     0.014     0.306     0.683     0.084     0.000     0.000     0.000     0.000     0.000     0.000     0.000     0.000     0.000     0.000     0.000     0.000     0.000     0.000     0.000     0.000     0.000     0.000 .00000E+00 .00000E+00 0.240E+01 0.361E+04 0.000E+00 0.154E+04 0.231E+06 0.000E+00 0.000E+00 0.000E+00     0.000     0.000     0.000
BERM    1 000010001    1    0   28.83023E+03     0.000     0.000     0.000     0.000     5.103     0.000   131.142   131.142     0.000     0.000     0.000     0.102     0.000     0.000   996.916  2000.000     0.000     0.000     0.000     0.000     0.000     0.000    91.262    24.623    29.936    19.310    27.013    25.933     0.000     0.000     0.000     0.000     0.000     0.000     0.000     0.000     0.000     0.000     0.000     0.000     0.000     0.084    -0.001     0.000     0.014     0.296     0.654     0.084     0.000     0.000     0.000     0.000     0.000     0.000     0.000     0.000     0.000     0.000     0.000     0.000     0.000     0.000     0.000     0.000     0.000     0.000 .00000E+00 .00000E+00 0.241E+01 0.361E+04 0.000E+00 0.154E+04 0.231E+06 0.000E+00 0.000E+00 0.000E+00     0.000     0.000     0.000
BERM    1 000010001    1    0   29.83023E+03     0.000     0.000     0.000     0.000     5.021     0.000   131.142   131.142     0.000     0.000     0.000     0.100     0.000     0.000   996.815  2000.000     0.000     0.000     0.000     0.000     0.000     0.000    91.262    23.025    28.683    17.366    26.893    25.691     0.000     0.000     0.000     0.000     0.000     0.000     0.000     0.000     0.000     0.000     0.000     0.000     0.000     0.084    -0.001     0.000     0.014     0.286     0.627     0.084     0.000     0.000     0.000     0.000     0.000     0.000     0.000     0.000     0.000     0.000     0.000     0.000     0.000     0.000     0.000     0.000     0.000     0.000 .00000E+00 .00000E+00 0.242E+01 0.361E+04 0.000E+00 0.154E+04 0.231E+06 0.000E+00 0.000E+00 0.000E+00     0.000     0.000     0.000
BERM    1 000010001    1    0   30.83023E+03     0.000     0.000     0.000     0.000     5.344     0.000   131.142   131.142     0.000     0.000     0.000     0.107     0.000     0.000   996.709  2000.000     0.000     0.000     0.000     0.000     0.000     0.000    91.262    24.353    29.319    19.387    26.918    25.745     0.000     0.000     0.000     0.000     0.000     0.000     0.000     0.000     0.000     0.000     0.000     0.000     0.000     0.084    -0.001     0.000     0.014     0.277     0.602     0.084     0.000     0.000     0.000     0.000     0.000     0.000     0.000     0.000     0.000     0.000     0.000     0.000     0.000     0.000     0.000     0.000     0.000     0.000 .00000E+00 .00000E+00 0.243E+01 0.361E+04 0.000E+00 0.154E+04 0.231E+06 0.000E+00 0.000E+00 0.000E+00     0.000     0.000     0.000
BERM    1 000010001    1    0   31.83023E+03     0.000     0.000     0.000     0.000     5.233     0.000   131.142   131.142     0.000     0.000     0.000     0.105     0.000     0.000   996.604  2000.000     0.000     0.000     0.000     0.000     0.000     0.000    91.262    24.713    29.900    19.526    26.979    25.751     0.000     0.000     0.000     0.000     0.000     0.000     0.000     0.000     0.000     0.000     0.000     0.000     0.000     0.084    -0.001     0.000     0.014     0.267     0.578     0.084     0.000     0.000     0.000     0.000     0.000     0.000     0.000     0.000     0.000     0.000     0.000     0.000     0.000     0.000     0.000     0.000     0.000     0.000 .00000E+00 .00000E+00 0.244E+01 0.361E+04 0.000E+00 0.154E+04 0.231E+06 0.000E+00 0.000E+00 0.000E+00     0.000     0.000     0.000
BERM    1 000010001    1    0   32.83023E+03     0.000     0.000     0.000     0.000     5.460     0.000   131.142   131.142     0.000     0.000     0.000     0.109     0.000     0.000   996.495  2000.000     0.000     0.000     0.000     0.000     0.000     0.000    91.262    27.059    32.109    22.008    27.273    26.391     0.000     0.000     0.000     0.000     0.000     0.000     0.000     0.000     0.000     0.000     0.000     0.000     0.000     0.084    -0.001     0.000     0.014     0.258     0.556     0.085     0.000     0.000     0.000     0.000     0.000     0.000     0.000     0.000     0.000     0.000     0.000     0.000     0.000     0.000     0.000     0.000     0.000     0.000 .00000E+00 .00000E+00 0.244E+01 0.361E+04 0.000E+00 0.154E+04 0.231E+06 0.000E+00 0.000E+00 0.000E+00     0.000     0.000     0.000
BERM    1 000010001    1    0   33.83023E+03     0.000     0.000     0.000     0.000     6.196     0.000   131.142   131.142     0.000     0.000     0.000     0.124     0.000     0.000   996.371  2000.000     0.000     0.000     0.000     0.000     0.000     0.000    91.262    25.732    31.877    19.588    27.405    26.663     0.000     0.000     0.000     0.000     0.000     0.000     0.000     0.000     0.000     0.000     0.000     0.000     0.000     0.085    -0.001     0.000     0.015     0.250     0.535     0.085     0.000     0.000     0.000     0.000     0.000     0.000     0.000     0.000     0.000     0.000     0.000     0.000     0.000     0.000     0.000     0.000     0.000     0.000 .00000E+00 .00000E+00 0.245E+01 0.361E+04 0.000E+00 0.154E+04 0.231E+06 0.000E+00 0.000E+00 0.000E+00     0.000     0.000     0.000
BERM    1 000010001    1    0   34.83023E+03     0.000     0.000     0.000     0.000     6.129     0.000   131.142   131.142     0.000     0.000     0.000     0.123     0.000     0.000   996.248  2000.000     0.000     0.000     0.000     0.000     0.000     0.000    91.262    24.977    31.126    18.827    27.440    26.939     0.000     0.000     0.000     0.000     0.000     0.000     0.000     0.000     0.000     0.000     0.000     0.000     0.000     0.085    -0.001     0.000     0.015     0.241     0.516     0.085     0.000     0.000     0.000     0.000     0.000     0.000     0.000     0.000     0.000     0.000     0.000     0.000     0.000     0.000     0.000     0.000     0.000     0.000 .00000E+00 .00000E+00 0.245E+01 0.361E+04 0.000E+00 0.154E+04 0.231E+06 0.000E+00 0.000E+00 0.000E+00     0.000     0.000     0.000
BERM    1 000010001    1    0   35.83023E+03     0.000     0.000     0.000     0.000     5.171     0.000   131.142   131.142     0.000     0.000     0.000     0.103     0.000     0.000   996.145  2000.000     0.000     0.000     0.000     0.000     0.000     0.000    91.262    24.509    30.103    18.915    27.408    26.967     0.000     0.000     0.000     0.000     0.000     0.000     0.000     0.000     0.000     0.000     0.000     0.000     0.000     0.085    -0.001     0.000     0.015     0.233     0.497     0.085     0.000     0.000     0.000     0.000     0.000     0.000     0.000     0.000     0.000     0.000     0.000     0.000     0.000     0.000     0.000     0.000     0.000     0.000 .00000E+00 .00000E+00 0.246E+01 0.361E+04 0.000E+00 0.154E+04 0.231E+06 0.000E+00 0.000E+00 0.000E+00     0.000     0.000     0.000
BERM    1 000010001    1    0   36.83023E+03     0.000     0.000     0.000     0.000     5.831     0.000   131.142   131.142     0.000     0.000     0.000     0.117     0.000     0.000   996.028  2000.000     0.000     0.000     0.000     0.000     0.000     0.000    91.262    26.009    31.759    20.258    27.537    26.931     0.000     0.000     0.000     0.000     0.000     0.000     0.000     0.000     0.000     0.000     0.000     0.000     0.000     0.085    -0.001     0.000     0.015     0.225     0.479     0.085     0.000     0.000     0.000     0.000     0.000     0.000     0.000     0.000     0.000     0.000     0.000     0.000     0.000     0.000     0.000     0.000     0.000     0.000 .00000E+00 .00000E+00 0.246E+01 0.361E+04 0.000E+00 0.154E+04 0.231E+06 0.000E+00 0.000E+00 0.000E+00     0.000     0.000     0.000
BERM    1 000010001    1    0   37.83023E+03     0.000     0.000     0.000     0.000     5.211     0.000   131.142   131.142     0.000     0.000     0.000     0.104     0.000     0.000   995.924  2000.000     0.000     0.000     0.000     0.000     0.000     0.000    91.262    24.501    29.251    19.752    27.466    27.073     0.000     0.000     0.000     0.000     0.000     0.000     0.000     0.000     0.000     0.000     0.000     0.000     0.000     0.085    -0.001     0.000     0.015     0.218     0.463     0.085     0.000     0.000     0.000     0.000     0.000     0.000     0.000     0.000     0.000     0.000     0.000     0.000     0.000     0.000     0.000     0.000     0.000     0.000 .00000E+00 .00000E+00 0.247E+01 0.361E+04 0.000E+00 0.154E+04 0.231E+06 0.000E+00 0.000E+00 0.000E+00     0.000     0.000     0.000
BERM    1 000010001    1    0   38.83023E+03     0.000     0.000     0.000     0.000     6.525     0.000   131.142   131.142     0.000     0.000     0.000     0.131     0.000     0.000   995.793  2000.000     0.000     0.000     0.000     0.000     0.000     0.000    91.262    25.887    31.580    20.194    27.563    26.600     0.000     0.000     0.000     0.000     0.000     0.000     0.000     0.000     0.000     0.000     0.000     0.000     0.000     0.085    -0.002     0.000     0.015     0.211     0.447     0.085     0.000     0.000     0.000     0.000     0.000     0.000     0.000     0.000     0.000     0.000     0.000     0.000     0.000     0.000     0.000     0.000     0.000     0.000 .00000E+00 .00000E+00 0.247E+01 0.361E+04 0.000E+00 0.154E+04 0.231E+06 0.000E+00 0.000E+00 0.000E+00     0.000     0.000     0.000
BERM    1 000010001    1    0   39.83023E+03     0.000     0.000     0.000     0.000     5.602     0.000   131.142   131.142     0.000     0.000     0.000     0.112     0.000     0.000   995.681  2000.000     0.000     0.000     0.000     0.000     0.000     0.000    91.262    26.477    31.924    21.031    27.695    26.658     0.000     0.000     0.000     0.000     0.000     0.000     0.000     0.000     0.000     0.000     0.000     0.000     0.000     0.085    -0.002     0.000     0.015     0.204     0.432     0.085     0.000     0.000     0.000     0.000     0.000     0.000     0.000     0.000     0.000     0.000     0.000     0.000     0.000     0.000     0.000     0.000     0.000     0.000 .00000E+00 .00000E+00 0.247E+01 0.361E+04 0.000E+00 0.154E+04 0.231E+06 0.000E+00 0.000E+00 0.000E+00     0.000     0.000     0.000
BERM    1 000010001    1    0   40.83023E+03     0.000     0.000     0.000     0.000     6.309     0.000   131.142   131.142     0.000     0.000     0.000     0.126     0.000     0.000   995.555  2000.000     0.000     0.000     0.000     0.000     0.000     0.000    91.262    27.055    32.179    21.930    27.851    26.580     0.000     0.000     0.000     0.000     0.000     0.000     0.000     0.000     0.000     0.000     0.000     0.000     0.000     0.085    -0.002     0.000     0.015     0.197     0.418     0.085     0.000     0.000     0.000     0.000     0.000     0.000     0.000     0.000     0.000     0.000     0.000     0.000     0.000     0.000     0.000     0.000     0.000     0.000 .00000E+00 .00000E+00 0.247E+01 0.361E+04 0.000E+00 0.154E+04 0.231E+06 0.000E+00 0.000E+00 0.000E+00     0.000     0.000     0.000
BERM    1 000010001    1    0   41.83023E+03     0.000     0.000     0.000     0.000     5.457     0.000   131.142   131.142     0.000     0.000     0.000     0.109     0.000     0.000   995.446  2000.000     0.000     0.000     0.000     0.000     0.000     0.000    91.262    25.638    30.862    20.413    27.837    26.720     0.000     0.000     0.000     0.000     0.000     0.000     0.000     0.000     0.000     0.000     0.000     0.000     0.000     0.085    -0.002     0.000     0.015     0.190     0.405     0.085     0.000     0.000     0.000     0.000     0.000     0.000     0.000     0.000     0.000     0.000     0.000     0.000     0.000     0.000     0.000     0.000     0.000     0.000 .00000E+00 .00000E+00 0.248E+01 0.361E+04 0.000E+00 0.154E+04 0.231E+06 0.000E+00 0.000E+00 0.000E+00     0.000     0.000     0.000
BERM    1 000010001    1    0   42.83023E+03     0.000     0.000     0.000     0.000     5.062     0.000   131.142   131.142     0.000     0.000     0.000     0.101     0.000     0.000   995.345  2000.000     0.000     0.000     0.000     0.000     0.000     0.000    91.262    26.657    32.750    20.563    27.945    26.514     0.000     0.000     0.000     0.000     0.000     0.000     0.000     0.000     0.000     0.000     0.000     0.000     0.000     0.085    -0.002     0.000     0.015     0.184     0.392     0.085     0.000     0.000     0.000     0.000     0.000     0.000     0.000     0.000     0.000     0.000     0.000     0.000     0.000     0.000     0.000     0.000     0.000     0.000 .00000E+00 .00000E+00 0.248E+01 0.361E+04 0.000E+00 0.154E+04 0.231E+06 0.000E+00 0.000E+00 0.000E+00     0.000     0.000     0.000
BERM    1 000010001    1    0   43.83023E+03     0.000     0.000     0.000     0.000     5.721     0.000   131.142   131.142     0.000     0.000     0.000     0.114     0.000     0.000   995.230  2000.000     0.000     0.000     0.000     0.000     0.000     0.000    91.262    28.118    34.348    21.888    28.179    26.422     0.000     0.000     0.000     0.000     0.000     0.000     0.000     0.000     0.000     0.000     0.000     0.000     0.000     0.086    -0.002     0.000     0.015     0.178     0.380     0.086     0.000     0.000     0.000     0.000     0.000     0.000     0.000     0.000     0.000     0.000     0.000     0.000     0.000     0.000     0.000     0.000     0.000     0.000 .00000E+00 .00000E+00 0.248E+01 0.361E+04 0.000E+00 0.154E+04 0.231E+06 0.000E+00 0.000E+00 0.000E+00     0.000     0.000     0.000
BERM    1 000010001    1    0   44.83023E+03     0.000     0.000     0.000     0.000     6.166     0.000   131.142   131.142     0.000     0.000     0.000     0.123     0.000     0.000   995.107  2000.000     0.000     0.000     0.000     0.000     0.000     0.000    91.262    28.020    33.928    22.112    28.354    26.604     0.000     0.000     0.000     0.000     0.000     0.000     0.000     0.000     0.000     0.000     0.000     0.000     0.000     0.086    -0.002     0.000     0.015     0.173     0.368     0.086     0.000     0.000     0.000     0.000     0.000     0.000     0.000     0.000     0.000     0.000     0.000     0.000     0.000     0.000     0.000     0.000     0.000     0.000 .00000E+00 .00000E+00 0.248E+01 0.361E+04 0.000E+00 0.154E+04 0.231E+06 0.000E+00 0.000E+00 0.000E+00     0.000     0.000     0.000
BERM    1 000010001    1    0   45.83023E+03     0.000     0.000     0.000     0.000     6.351     0.000   131.142   131.142     0.000     0.000     0.000     0.127     0.000     0.000   994.980  2000.000     0.000     0.000     0.000     0.000     0.000     0.000    91.262    28.562    34.772    22.352    28.556    26.641     0.000     0.000     0.000     0.000     0.000     0.000     0.000     0.000     0.000     0.000     0.000     0.000     0.000     0.086    -0.002     0.000     0.015     0.167     0.357     0.086     0.000     0.000     0.000     0.000     0.000     0.000     0.000     0.000     0.000     0.000     0.000     0.000     0.000     0.000     0.000     0.000     0.000     0.000 .00000E+00 .00000E+00 0.249E+01 0.361E+04 0.000E+00 0.154E+04 0.231E+06 0.000E+00 0.000E+00 0.000E+00     0.000     0.000     0.000
BERM    1 000010001    1    0   46.83023E+03     0.000     0.000     0.000     0.000     6.447     0.000   131.142   131.142     0.000     0.000     0.000     0.129     0.000     0.000   994.851  2000.000     0.000     0.000     0.000     0.000     0.000     0.000    91.262    28.512    33.843    23.180    28.692    26.656     0.000     0.000     0.000     0.000     0.000     0.000     0.000     0.000     0.000     0.000     0.000     0.000     0.000     0.086    -0.002     0.000     0.015     0.162     0.347     0.086     0.000     0.000     0.000     0.000     0.000     0.000     0.000     0.000     0.000     0.000     0.000     0.000     0.000     0.000     0.000     0.000     0.000     0.000 .00000E+00 .00000E+00 0.249E+01 0.361E+04 0.000E+00 0.154E+04 0.231E+06 0.000E+00 0.000E+00 0.000E+00     0.000     0.000     0.000
BERM    1 000010001    1    0   47.83023E+03     0.000     0.000     0.000     0.000     5.483     0.000   131.142   131.142     0.000     0.000     0.000     0.110     0.000     0.000   994.741  2000.000     0.000     0.000     0.000     0.000     0.000     0.000    91.262    27.859    32.961    22.757    28.730    26.667     0.000     0.000     0.000     0.000     0.000     0.000     0.000     0.000     0.000     0.000     0.000     0.000     0.000     0.086    -0.002     0.000     0.015     0.157     0.337     0.086     0.000     0.000     0.000     0.000     0.000     0.000     0.000     0.000     0.000     0.000     0.000     0.000     0.000     0.000     0.000     0.000     0.000     0.000 .00000E+00 .00000E+00 0.249E+01 0.361E+04 0.000E+00 0.154E+04 0.231E+06 0.000E+00 0.000E+00 0.000E+00     0.000     0.000     0.000
BERM    1 000010001    1    0   48.83023E+03     0.000     0.000     0.000     0.000     5.864     0.000   131.142   131.142     0.000     0.000     0.000     0.117     0.000     0.000   994.624  2000.000     0.000     0.000     0.000     0.000     0.000     0.000    91.262    28.042    32.942    23.143    28.773    26.605     0.000     0.000     0.000     0.000     0.000     0.000     0.000     0.000     0.000     0.000     0.000     0.000     0.000     0.086    -0.002     0.000     0.015     0.152     0.328     0.086     0.000     0.000     0.000     0.000     0.000     0.000     0.000     0.000     0.000     0.000     0.000     0.000     0.000     0.000     0.000     0.000     0.000     0.000 .00000E+00 .00000E+00 0.249E+01 0.361E+04 0.000E+00 0.154E+04 0.231E+06 0.000E+00 0.000E+00 0.000E+00     0.000     0.000     0.000
BERM    1 000010001    1    0   49.83023E+03     0.000     0.000     0.000     0.000     5.892     0.000   131.142   131.142     0.000     0.000     0.000     0.118     0.000     0.000   994.506  2000.000     0.000     0.000     0.000     0.000     0.000     0.000    91.262    27.908    31.991    23.826    28.774    26.549     0.000     0.000     0.000     0.000     0.000     0.000     0.000     0.000     0.000     0.000     0.000     0.000     0.000     0.086    -0.002     0.000     0.015     0.148     0.319     0.086     0.000     0.000     0.000     0.000     0.000     0.000     0.000     0.000     0.000     0.000     0.000     0.000     0.000     0.000     0.000     0.000     0.000     0.000 .00000E+00 .00000E+00 0.249E+01 0.361E+04 0.000E+00 0.154E+04 0.231E+06 0.000E+00 0.000E+00 0.000E+00     0.000     0.000     0.000
BERM    1 000010001    1    0   50.83023E+03     0.000     0.000     0.000     0.000     5.629     0.000   131.142   131.142     0.000     0.000     0.000     0.113     0.000     0.000   994.394  2000.000     0.000     0.000     0.000     0.000     0.000     0.000    91.262    26.716    30.893    22.539    28.657    26.534     0.000     0.000     0.000     0.000     0.000     0.000     0.000     0.000     0.000     0.000     0.000     0.000     0.000     0.086    -0.002     0.000     0.015     0.143     0.310     0.086     0.000     0.000     0.000     0.000     0.000     0.000     0.000     0.000     0.000     0.000     0.000     0.000     0.000     0.000     0.000     0.000     0.000     0.000 .00000E+00 .00000E+00 0.249E+01 0.361E+04 0.000E+00 0.154E+04 0.231E+06 0.000E+00 0.000E+00 0.000E+00     0.000     0.000     0.000
BERM    1 000010001    1    0   51.83023E+03     0.000     0.000     0.000     0.000     5.550     0.000   131.142   131.142     0.000     0.000     0.000     0.111     0.000     0.000   994.283  2000.000     0.000     0.000     0.000     0.000     0.000     0.000    91.262    26.170    30.777    21.562    28.518    26.532     0.000     0.000     0.000     0.000     0.000     0.000     0.000     0.000     0.000     0.000     0.000     0.000     0.000     0.086    -0.002     0.000     0.015     0.139     0.302     0.086     0.000     0.000     0.000     0.000     0.000     0.000     0.000     0.000     0.000     0.000     0.000     0.000     0.000     0.000     0.000     0.000     0.000     0.000 .00000E+00 .00000E+00 0.249E+01 0.361E+04 0.000E+00 0.154E+04 0.231E+06 0.000E+00 0.000E+00 0.000E+00     0.000     0.000     0.000
BERM    1 000010001    1    0   52.83023E+03     0.000     0.000     0.000     0.000     6.557     0.000   131.142   131.142     0.000     0.000     0.000     0.131     0.000     0.000   994.152  2000.000     0.000     0.000     0.000     0.000     0.000     0.000    91.262    25.167    31.353    18.982    28.342    26.544     0.000     0.000     0.000     0.000     0.000     0.000     0.000     0.000     0.000     0.000     0.000     0.000     0.000     0.086    -0.002     0.000     0.015     0.135     0.294     0.085     0.000     0.000     0.000     0.000     0.000     0.000     0.000     0.000     0.000     0.000     0.000     0.000     0.000     0.000     0.000     0.000     0.000     0.000 .00000E+00 .00000E+00 0.249E+01 0.361E+04 0.000E+00 0.154E+04 0.231E+06 0.000E+00 0.000E+00 0.000E+00     0.000     0.000     0.000
BERM    1 000010001    1    0   53.83023E+03     0.000     0.000     0.000     0.000     6.012     0.000   131.142   131.142     0.000     0.000     0.000     0.120     0.000     0.000   994.031  2000.000     0.000     0.000     0.000     0.000     0.000     0.000    91.262    25.130    30.683    19.577    28.187    26.745     0.000     0.000     0.000     0.000     0.000     0.000     0.000     0.000     0.000     0.000     0.000     0.000     0.000     0.085    -0.002     0.000     0.015     0.131     0.287     0.085     0.000     0.000     0.000     0.000     0.000     0.000     0.000     0.000     0.000     0.000     0.000     0.000     0.000     0.000     0.000     0.000     0.000     0.000 .00000E+00 .00000E+00 0.249E+01 0.361E+04 0.000E+00 0.154E+04 0.231E+06 0.000E+00 0.000E+00 0.000E+00     0.000     0.000     0.000
BERM    1 000010001    1    0   54.83023E+03     0.000     0.000     0.000     0.000     5.083     0.000   131.142   131.142     0.000     0.000     0.000     0.102     0.000     0.000   993.930  2000.000     0.000     0.000     0.000     0.000     0.000     0.000    91.262    25.468    30.734    20.202    28.087    26.543     0.000     0.000     0.000     0.000     0.000     0.000     0.000     0.000     0.000     0.000     0.000     0.000     0.000     0.085    -0.002     0.000     0.015     0.127     0.280     0.085     0.000     0.000     0.000     0.000     0.000     0.000     0.000     0.000     0.000     0.000     0.000     0.000     0.000     0.000     0.000     0.000     0.000     0.000 .00000E+00 .00000E+00 0.249E+01 0.361E+04 0.000E+00 0.154E+04 0.231E+06 0.000E+00 0.000E+00 0.000E+00     0.000     0.000     0.000
BERM    1 000010001    1    0   55.83023E+03     0.000     0.000     0.000     0.000     6.520     0.000   131.142   131.142     0.000     0.000     0.000     0.130     0.000     0.000   993.799  2000.000     0.000     0.000     0.000     0.000     0.000     0.000    91.262    24.462    30.657    18.267    27.933    26.851     0.000     0.000     0.000     0.000     0.000     0.000     0.000     0.000     0.000     0.000     0.000     0.000     0.000     0.085    -0.002     0.000     0.015     0.124     0.273     0.085     0.000     0.000     0.000     0.000     0.000     0.000     0.000     0.000     0.000     0.000     0.000     0.000     0.000     0.000     0.000     0.000     0.000     0.000 .00000E+00 .00000E+00 0.249E+01 0.361E+04 0.000E+00 0.154E+04 0.231E+06 0.000E+00 0.000E+00 0.000E+00     0.000     0.000     0.000
BERM    1 000010001    1    0   56.83023E+03     0.000     0.000     0.000     0.000     5.587     0.000   131.142   131.142     0.000     0.000     0.000     0.112     0.000     0.000   993.688  2000.000     0.000     0.000     0.000     0.000     0.000     0.000    91.262    24.899    29.969    19.829    27.822    26.599     0.000     0.000     0.000     0.000     0.000     0.000     0.000     0.000     0.000     0.000     0.000     0.000     0.000     0.085    -0.002     0.000     0.015     0.120     0.266     0.085     0.000     0.000     0.000     0.000     0.000     0.000     0.000     0.000     0.000     0.000     0.000     0.000     0.000     0.000     0.000     0.000     0.000     0.000 .00000E+00 .00000E+00 0.250E+01 0.361E+04 0.000E+00 0.154E+04 0.231E+06 0.000E+00 0.000E+00 0.000E+00     0.000     0.000     0.000
BERM    1 000010001    1    0   57.83023E+03     0.000     0.000     0.000     0.000     6.938     0.000   131.142   131.142     0.000     0.000     0.000     0.139     0.000     0.000   993.549  2000.000     0.000     0.000     0.000     0.000     0.000     0.000    91.262    25.946    30.989    20.904    27.839    26.606     0.000     0.000     0.000     0.000     0.000     0.000     0.000     0.000     0.000     0.000     0.000     0.000     0.000     0.085    -0.002     0.000     0.015     0.117     0.260     0.085     0.000     0.000     0.000     0.000     0.000     0.000     0.000     0.000     0.000     0.000     0.000     0.000     0.000     0.000     0.000     0.000     0.000     0.000 .00000E+00 .00000E+00 0.250E+01 0.361E+04 0.000E+00 0.154E+04 0.231E+06 0.000E+00 0.000E+00 0.000E+00     0.000     0.000     0.000
BERM    1 000010001    1    0   58.83023E+03     0.000     0.000     0.000     0.000     6.233     0.000   131.142   131.142     0.000     0.000     0.000     0.125     0.000     0.000   993.424  2000.000     0.000     0.000     0.000     0.000     0.000     0.000    91.262    25.682    30.641    20.723    27.826    26.727     0.000     0.000     0.000     0.000     0.000     0.000     0.000     0.000     0.000     0.000     0.000     0.000     0.000     0.085    -0.002     0.000     0.015     0.114     0.254     0.085     0.000     0.000     0.000     0.000     0.000     0.000     0.000     0.000     0.000     0.000     0.000     0.000     0.000     0.000     0.000     0.000     0.000     0.000 .00000E+00 .00000E+00 0.250E+01 0.361E+04 0.000E+00 0.154E+04 0.231E+06 0.000E+00 0.000E+00 0.000E+00     0.000     0.000     0.000
BERM    1 000010001    1    0   59.83023E+03     0.000     0.000     0.000     0.000     5.575     0.000   131.142   131.142     0.000     0.000     0.000     0.112     0.000     0.000   993.313  2000.000     0.000     0.000     0.000     0.000     0.000     0.000    91.262    25.424    31.442    19.406    27.815    26.773     0.000     0.000     0.000     0.000     0.000     0.000     0.000     0.000     0.000     0.000     0.000     0.000     0.000     0.085    -0.002     0.000     0.015     0.111     0.248     0.085     0.000     0.000     0.000     0.000     0.000     0.000     0.000     0.000     0.000     0.000     0.000     0.000     0.000     0.000     0.000     0.000     0.000     0.000 .00000E+00 .00000E+00 0.250E+01 0.361E+04 0.000E+00 0.154E+04 0.231E+06 0.000E+00 0.000E+00 0.000E+00     0.000     0.000     0.000
BERM    1 000010001    1    0   60.83023E+03     0.000     0.000     0.000     0.000     5.894     0.000   131.142   131.142     0.000     0.000     0.000     0.118     0.000     0.000   993.195  2000.000     0.000     0.000     0.000     0.000     0.000     0.000    91.262    29.080    34.367    23.793    28.138    25.705     0.000     0.000     0.000     0.000     0.000     0.000     0.000     0.000     0.000     0.000     0.000     0.000     0.000     0.085    -0.002     0.000     0.015     0.108     0.243     0.085     0.000     0.000     0.000     0.000     0.000     0.000     0.000     0.000     0.000     0.000     0.000     0.000     0.000     0.000     0.000     0.000     0.000     0.000 .00000E+00 .00000E+00 0.250E+01 0.361E+04 0.000E+00 0.154E+04 0.231E+06 0.000E+00 0.000E+00 0.000E+00     0.000     0.000     0.000
BERM    1 000010001    1    0   61.83023E+03     0.000     0.000     0.000     0.000     5.573     0.000   131.142   131.142     0.000     0.000     0.000     0.111     0.000     0.000   993.083  2000.000     0.000     0.000     0.000     0.000     0.000     0.000    91.262    26.751    32.685    20.816    28.171    25.509     0.000     0.000     0.000     0.000     0.000     0.000     0.000     0.000     0.000     0.000     0.000     0.000     0.000     0.085    -0.002     0.000     0.015     0.106     0.238     0.085     0.000     0.000     0.000     0.000     0.000     0.000     0.000     0.000     0.000     0.000     0.000     0.000     0.000     0.000     0.000     0.000     0.000     0.000 .00000E+00 .00000E+00 0.250E+01 0.361E+04 0.000E+00 0.154E+04 0.231E+06 0.000E+00 0.000E+00 0.000E+00     0.000     0.000     0.000
BERM    1 000010001    1    0   62.83023E+03     0.000     0.000     0.000     0.000     6.457     0.118   131.142   131.024     0.000     0.000     0.000     0.129     0.000     0.000   992.954  2000.000     0.000     0.000     0.000     0.000     0.000     0.000    91.262    25.616    31.868    19.364    28.108    26.393     0.000     0.000     0.000     0.000     0.000     0.000     0.000     0.000     0.000     0.000     0.000     0.000     0.000     0.085    -0.002     0.000     0.015     0.103     0.232     0.085     0.000     0.000     0.000     0.000     0.000     0.000     0.000     0.000     0.000     0.000     0.000     0.000     0.000     0.000     0.000     0.020     0.025     0.000 .00000E+00 .00000E+00 0.250E+01 0.361E+04 0.000E+00 0.154E+04 0.231E+06 0.000E+00 0.000E+00 0.000E+00     0.000     0.000     0.000
BERM    1 000010001    1    0   63.83023E+03     0.000     0.000     0.000     0.000     5.721     0.239   131.024   130.785     0.000     0.000     0.000     0.114     0.000     0.000   992.840  2000.000     0.000     0.000     0.000     0.000     0.000     0.000    91.253    26.230    32.758    19.703    28.117    26.021     0.000     0.000     0.000     0.000     0.000     0.000     0.000     0.000     0.000     0.000     0.000     0.000     0.000     0.085    -0.003     0.000     0.015     0.080     0.227     0.061     0.033     0.251     0.000     0.000     0.000     0.000     0.000     0.000     0.000     0.000     0.000     0.000     0.001     0.972     0.000     0.021     0.030     0.000 .00000E+00 .00000E+00 0.250E+01 0.361E+04 0.000E+00 0.154E+04 0.231E+06 0.000E+00 0.000E+00 0.000E+00     0.000     0.000     0.000
BERM    1 000010001    1    0   64.83023E+03     0.000     0.000     0.000     0.000     6.450     0.354   130.785   130.431     0.000     0.000     0.000     0.129     0.000     0.000   992.711  2000.000     0.000     0.000     0.000     0.000     0.000     0.000    91.237    27.196    32.442    21.950    28.195    26.056     0.000     0.000     0.000     0.000   122.793     0.000     0.000     0.000     0.000     0.000     0.000     0.000     0.000     0.085    -0.003     0.000     0.015     0.080     0.220    88.542     0.024     0.000     0.000     0.000     0.000     0.000     0.000     0.000     0.000     0.000     0.000     0.000     0.004     0.980     0.000     0.021     0.035     0.000 .00000E+00 .00000E+00 0.250E+01 0.361E+04 0.000E+00 0.154E+04 0.231E+06 0.000E+00 0.000E+00 0.000E+00     0.000     0.000     0.000
BERM    1 000010001    1    0   65.83023E+03     0.000     0.000     0.000     0.000     6.281     0.470   130.431   129.961     0.000     0.000     0.000     0.126     0.000     0.000   992.585  2000.000     0.000     0.000     0.000     0.000     0.000     0.000    91.212    27.285    33.008    21.562    28.270    25.682     0.000     0.000     0.000     0.000     0.000     0.000     0.000     0.000     0.000     0.000     0.000     0.000     0.000     0.085    -0.003     0.000     0.015     0.080     0.214    23.986     1.171     0.000     0.000     0.000     0.000     0.000     0.000     0.000     0.000     0.000     0.000     0.000     0.005     0.000     0.000     0.043     0.076     0.000 .00000E+00 .00000E+00 0.250E+01 0.361E+04 0.000E+00 0.154E+04 0.231E+06 0.000E+00 0.000E+00 0.000E+00     0.000     0.000     0.000
BERM    1 000010001    1    0   66.83023E+03     0.000     0.000     0.000     0.000     6.258     0.611   129.961   129.350     0.000     0.000     0.000     0.125     0.000     0.000   992.460  2000.000     0.000     0.000     0.000     0.000     0.000     0.000    91.180    28.470    33.759    23.180    28.443    25.911     0.000     0.000     0.000     0.000     0.000     0.000     0.000     0.000     0.000     0.000     0.000     0.000     0.000     0.085    -0.003     0.000     0.015     0.066     0.208     5.778     1.360     0.165     0.000     0.000     0.000     0.000     0.000     0.000     0.000     0.000     0.000     0.000     0.014     0.000     0.000     0.095     0.125     0.000 .00000E+00 .00000E+00 0.250E+01 0.361E+04 0.000E+00 0.154E+04 0.231E+06 0.000E+00 0.000E+00 0.000E+00     0.000     0.000     0.000
BERM    1 000010001    1    0   67.83023E+03     0.000     0.000     0.000     0.000     6.179     0.809   129.350   128.541     0.000     0.000     0.000     0.124     0.000     0.000   992.336  2000.000     0.000     0.000     0.000     0.000     0.000     0.000    91.137    28.398    33.892    22.903    28.577    25.842     0.000     0.000     0.000     0.000   118.050     0.000     0.000     0.000     0.000     0.000     0.000     0.000     0.000     0.085    -0.003     0.000     0.015     0.020     0.201    86.802     0.538     0.561     0.000     0.000     0.000     0.000     0.000     0.000     0.000     0.000     0.000     0.000     0.013     0.722     0.000     0.115     0.154     0.000 .00000E+00 .00000E+00 0.250E+01 0.361E+04 0.000E+00 0.154E+04 0.231E+06 0.000E+00 0.000E+00 0.000E+00     0.000     0.000     0.000
BERM    1 000010001    1    0   68.83023E+03     0.000     0.000     0.000     0.000     5.313     2.103   128.541   126.438     0.000     0.000     0.000     0.106     0.000     0.000   992.230  2000.000     0.000     0.000     0.000     0.000     0.000     0.000    91.080    29.333    34.145    24.520    28.747    24.941     0.000     0.000     0.000     0.000     0.000     0.000     0.000     0.000     0.000     0.000     0.000     0.000     0.000     0.085    -0.003     0.000     0.015     0.030     0.189    21.303     3.754     0.000     0.000     0.000     0.000     0.000     0.000     0.000     0.000     0.000     0.000     0.000     0.026     0.000     0.000     0.193     0.218     0.000 .00000E+00 .00000E+00 0.250E+01 0.361E+04 0.000E+00 0.154E+04 0.231E+06 0.000E+00 0.000E+00 0.000E+00     0.000     0.000     0.000
BERM    1 000010001    1    0   69.83023E+03     0.000     0.000     0.000     0.000     5.463     1.625   126.438   124.813     0.000     0.000     0.000     0.109     0.000     0.000   992.121  2000.000     0.000     0.000     0.000     0.000     0.000     0.000    90.930    29.227    34.595    23.858    28.896    25.750     0.000     0.000     0.000     0.000     0.000     0.000     0.000     0.000     0.000     0.000     0.000     0.000     0.000     0.085    -0.003     0.000     0.015    -0.063     0.180     4.819     1.496     0.940     0.000     0.000     0.000     0.000     0.000     0.000     0.000     0.000     0.000     0.000     0.024     0.193     0.000     0.279     0.283     0.000 .00000E+00 .00000E+00 0.250E+01 0.361E+04 0.000E+00 0.154E+04 0.231E+06 0.000E+00 0.000E+00 0.000E+00     0.000     0.000     0.000
BERM    1 000010001    1    0   70.83023E+03     0.000     0.000     0.000     0.000     6.121     1.325   124.813   123.488     0.000     0.000     0.000     0.122     0.000     0.000   991.998  2000.000     0.000     0.000     0.000     0.000     0.000     0.000    90.812    28.569    35.029    22.109    28.981    26.246     0.000     0.000     0.000     0.000   109.157     0.000     0.000     0.000     0.000     0.000     0.000     0.000     0.000     0.085    -0.003     0.000     0.015    -0.151     0.166    80.209     0.893     0.586     0.000     0.000     0.000     0.000     0.000     0.000     0.000     0.000     0.000     0.000     0.015     0.697     0.000     0.318     0.325     0.000 .00000E+00 .00000E+00 0.250E+01 0.361E+04 0.000E+00 0.154E+04 0.231E+06 0.000E+00 0.000E+00 0.000E+00     0.000     0.000     0.000
BERM    1 000010001    1    0   71.83023E+03     0.000     0.000     0.000     0.000     5.752     2.566   123.488   120.922     0.000     0.000     0.000     0.115     0.000     0.000   991.883  2000.000     0.000     0.000     0.000     0.000     0.000     0.000    90.715    29.489    34.945    24.033    29.124    26.785     0.000     0.000     0.000     0.000     0.000     0.000     0.000     0.000     0.000     0.000     0.000     0.000     0.000     0.085    -0.003     0.000     0.015    -0.122     0.144    16.841     6.938     0.183     0.000     0.000     0.000     0.000     0.000     0.000     0.000     0.000     0.000     0.000     0.029     0.073     0.000     0.454     0.410     0.000 .00000E+00 .00000E+00 0.250E+01 0.361E+04 0.000E+00 0.154E+04 0.231E+06 0.000E+00 0.000E+00 0.000E+00     0.000     0.000     0.000
BERM    1 000010001    1    0   72.83023E+03     0.000     0.000     0.000     0.000     5.829     2.160   120.922   118.763     0.000     0.000     0.000     0.117     0.000     0.000   991.767  2000.000     0.000     0.000     0.000     0.000     0.000     0.000    90.522    29.576    35.396    23.757    29.235    25.892     0.000     0.000     0.000     0.000     0.000     0.000     0.000     0.000     0.000     0.000     0.000     0.000     0.000     0.084    -0.003     0.000     0.014    -0.401     0.127     3.792     1.141     1.570     0.000     0.000     0.000     0.000     0.000     0.000     0.000     0.000     0.000     0.000     0.031     0.373     0.000     0.559     0.487     0.000 .00000E+00 .00000E+00 0.250E+01 0.361E+04 0.000E+00 0.154E+04 0.231E+06 0.000E+00 0.000E+00 0.000E+00     0.000     0.000     0.000
BERM    1 000010001    1    0   73.83023E+03     0.000     0.000     0.000     0.000     6.341     2.595   118.763   116.167     0.000     0.000     0.000     0.127     0.000     0.000   991.640  2000.000     0.000     0.000     0.000     0.000     0.000     0.000    90.356    30.046    35.195    24.897    29.355    26.210     0.000     0.000     0.000     0.000     0.000     0.000     0.000     0.000     0.000     0.000     0.000     0.000     0.000     0.084    -0.003     0.000     0.014    -0.360     0.091     0.265     1.123     0.476     0.000     0.000     0.000     0.000     0.000     0.000     0.000     0.000     0.000     0.000     0.042     0.706     0.000     0.607     0.545     0.000 .00000E+00 .00000E+00 0.250E+01 0.361E+04 0.000E+00 0.154E+04 0.231E+06 0.000E+00 0.000E+00 0.000E+00     0.000     0.000     0.000
BERM    1 000010001    1    0   74.83023E+03     0.000     0.000     0.000     0.000     6.843     2.486   116.167   113.681     0.000     0.000     0.000     0.137     0.000     0.000   991.503  2000.000     0.000     0.000     0.000     0.000     0.000     0.000    90.153    28.794    35.355    22.233    29.368    26.335     0.000     0.000     0.000     0.000     0.000     0.000     0.000     0.000     0.000     0.000     0.000     0.000     0.000     0.084    -0.003     0.000     0.014    -0.305     0.062     0.061     0.097     0.320     0.000     0.000     0.000     0.000     0.000     0.000     0.000     0.000     0.000    -0.000     0.018     0.924     0.000     0.619     0.574     0.000 .00000E+00 .00000E+00 0.250E+01 0.361E+04 0.000E+00 0.154E+04 0.231E+06 0.000E+00 0.000E+00 0.000E+00     0.000     0.000     0.000
BERM    1 000010001    1    0   75.83023E+03     0.000     0.000     0.000     0.000     5.938     2.166   113.681   111.516     0.000     0.000     0.000     0.119     0.000     0.000   991.384  2000.000     0.000     0.000     0.000     0.000     0.000     0.000    89.952    27.146    32.603    21.688    29.220    26.687     0.000     0.000     0.000     0.000     0.000     0.000     0.000     0.000     0.000     0.000     0.000     0.000     0.000     0.083    -0.003     0.000     0.014    -0.207     0.041     0.061     0.022     0.000     0.000     0.000     0.000     0.000     0.000     0.000     0.000     0.000     0.000     0.000     0.004     0.975     0.000     0.625     0.590     0.000 .00000E+00 .00000E+00 0.250E+01 0.361E+04 0.000E+00 0.154E+04 0.231E+06 0.000E+00 0.000E+00 0.000E+00     0.000     0.000     0.000
BERM    1 000010001    1    0   76.83023E+03     0.000     0.000     0.000     0.000     7.156     2.181   111.516   109.335     0.000     0.000     0.000     0.143     0.000     0.000   991.241  2000.000     0.000     0.000     0.000     0.000     0.000     0.000    89.774    26.077    32.003    20.151    29.007    26.055     0.000     0.000     0.000     0.000     0.000     0.000     0.000     0.000     0.000     0.000     0.000     0.000     0.000     0.083    -0.003     0.000     0.014    -0.142     0.029     0.060     0.022     0.000     0.000     0.000     0.000     0.000     0.000     0.000     0.000     0.000     0.000     0.000     0.001     0.992     0.000     0.626     0.599     0.000 .00000E+00 .00000E+00 0.250E+01 0.361E+04 0.000E+00 0.154E+04 0.231E+06 0.000E+00 0.000E+00 0.000E+00     0.000     0.000     0.000
BERM    1 000010001    1    0   77.83023E+03     0.000     0.000     0.000     0.000     7.328     2.293   109.335   107.042     0.000     0.000     0.000     0.147     0.000     0.000   991.095  2000.000     0.000     0.000     0.000     0.000     0.000     0.000    89.591    26.283    32.376    20.189    28.853    25.869     0.000     0.000     0.000     0.000     0.000     0.000     0.000     0.000     0.000     0.000     0.000     0.000     0.000     0.082    -0.003     0.000     0.014    -0.097     0.023     0.060     0.022     0.000     0.000     0.000     0.000     0.000     0.000     0.000     0.000     0.000     0.000     0.000     0.001     0.990     0.000     0.628     0.609     0.000 .00000E+00 .00000E+00 0.250E+01 0.361E+04 0.000E+00 0.154E+04 0.231E+06 0.000E+00 0.000E+00 0.000E+00     0.000     0.000     0.000
BERM    1 000010001    1    0   78.83023E+03     0.000     0.000     0.000     0.000     5.893     2.599   107.042   104.443     0.000     0.000     0.000     0.118     0.000     0.000   990.977  2000.000     0.000     0.000     0.000     0.000     0.000     0.000    89.393    28.584    34.506    22.662    28.892    24.341     0.000     0.000     0.000     0.000     0.000     0.000     0.000     0.000     0.000     0.000     0.000     0.000     0.000     0.082    -0.003     0.000     0.014    -0.067     0.021     0.059     0.022     0.000     0.000     0.000     0.000     0.000     0.000     0.000     0.000     0.000     0.000     0.000     0.015     0.987     0.000     0.630     0.624     0.000 .00000E+00 .00000E+00 0.250E+01 0.361E+04 0.000E+00 0.154E+04 0.231E+06 0.000E+00 0.000E+00 0.000E+00     0.000     0.000     0.000
BERM    1 000010001    1    0   79.83023E+03     0.000     0.000     0.000     0.000     5.603     2.936   104.443   101.507     0.000     0.000     0.000     0.112     0.000     0.000   990.865  2000.000     0.000     0.000     0.000     0.000     0.000     0.000    89.164    28.947    34.667    23.227    28.974    25.774     0.000     0.000     0.000     0.000     0.000     0.000     0.000     0.000     0.000     0.000     0.000     0.000     0.000     0.081    -0.003     0.000     0.014    -0.045     0.021     0.059     0.022     0.000     0.000     0.000     0.000     0.000     0.000     0.000     0.000     0.000     0.000     0.000     0.020     0.984     0.000     0.633     0.640     0.000 .00000E+00 .00000E+00 0.250E+01 0.361E+04 0.000E+00 0.154E+04 0.231E+06 0.000E+00 0.000E+00 0.000E+00     0.000     0.000     0.000
BERM    1 000010001    1    0   80.83023E+03     0.000     0.000     0.000     0.000     5.612     2.362   101.507    99.146     0.000     0.000     0.000     0.112     0.000     0.000   990.753  2000.000     0.000     0.000     0.000     0.000     0.000     0.000    88.898    31.226    36.464    25.987    29.188    23.913     0.000     0.000     0.000     0.000     0.000     0.000     0.000     0.000     0.000     0.000     0.000     0.000     0.000     0.081    -0.003     0.000     0.014    -0.030     0.022     0.059     0.022     0.000     0.000     0.000     0.000     0.000     0.000     0.000     0.000     0.000     0.000     0.000     0.085     0.984     0.000     0.637     0.659     0.000 .00000E+00 .00000E+00 0.250E+01 0.361E+04 0.000E+00 0.154E+04 0.231E+06 0.000E+00 0.000E+00 0.000E+00     0.000     0.000     0.000
BERM    1 000010001    1    0   81.83023E+03     0.000     0.000     0.000     0.000     5.792     2.739    99.146    96.407     0.000     0.000     0.000     0.116     0.000     0.000   990.637  2000.000     0.000     0.000     0.000     0.000     0.000     0.000    88.679    29.993    35.317    24.669    29.285    25.567     0.000     0.000     0.000     0.000     0.000     0.000     0.000     0.000     0.000     0.000     0.000     0.000     0.000     0.080    -0.003     0.000     0.014    -0.019     0.024     0.059     0.022     0.000     0.000     0.000     0.000     0.000     0.000     0.000     0.000     0.000     0.000     0.000     0.040     0.983     0.000     0.640     0.677     0.000 .00000E+00 .00000E+00 0.250E+01 0.361E+04 0.000E+00 0.154E+04 0.231E+06 0.000E+00 0.000E+00 0.000E+00     0.000     0.000     0.000
BERM    1 000010001    1    0   82.83023E+03     0.000     0.000     0.000     0.000     6.180     2.321    96.407    94.086     0.000     0.000     0.000     0.124     0.000     0.000   990.513  2000.000     0.000     0.000     0.000     0.000     0.000     0.000    88.417    30.139    35.008    25.270    29.340    23.652     0.000     0.000     0.000     0.000     0.000     0.000     0.000     0.000     0.000     0.000     0.000     0.000     0.000     0.080    -0.003     0.000     0.014    -0.012     0.026     0.059     0.022     0.000     0.000     0.000     0.000     0.000     0.000     0.000     0.000     0.000     0.000     0.000     0.044     0.981     0.000     0.644     0.697     0.000 .00000E+00 .00000E+00 0.250E+01 0.361E+04 0.000E+00 0.154E+04 0.231E+06 0.000E+00 0.000E+00 0.000E+00     0.000     0.000     0.000
BERM    1 000010001    1    0   83.83023E+03     0.000     0.000     0.000     0.000     5.952     2.861    94.086    91.225     0.000     0.000     0.000     0.119     0.000     0.000   990.394  2000.000     0.000     0.000     0.000     0.000     0.000     0.000    88.190    29.020    34.343    23.696    29.327    25.586     0.000     0.000     0.000     0.000     0.000     0.000     0.000     0.000     0.000     0.000     0.000     0.000     0.000     0.080    -0.003     0.000     0.014    -0.007     0.028     0.058     0.022     0.000     0.000     0.000     0.000     0.000     0.000     0.000     0.000     0.000     0.000     0.000     0.021     0.977     0.000     0.649     0.717     0.000 .00000E+00 .00000E+00 0.250E+01 0.361E+04 0.000E+00 0.154E+04 0.231E+06 0.000E+00 0.000E+00 0.000E+00     0.000     0.000     0.000
BERM    1 000010001    1    0   84.83023E+03     0.000     0.000     0.000     0.000     5.764     2.670    91.225    88.556     0.000     0.000     0.000     0.115     0.000     0.000   990.279  2000.000     0.000     0.000     0.000     0.000     0.000     0.000    87.902    27.910    33.248    22.572    29.232    25.804     0.000     0.000     0.000     0.000     0.000     0.000     0.000     0.000     0.000     0.000     0.000     0.000     0.000     0.079    -0.003     0.000     0.014    -0.006     0.030     0.058     0.021     0.000     0.000     0.000     0.000     0.000     0.000     0.000     0.000     0.000     0.000     0.000     0.009     0.975     0.000     0.655     0.737     0.000 .00000E+00 .00000E+00 0.250E+01 0.361E+04 0.000E+00 0.154E+04 0.231E+06 0.000E+00 0.000E+00 0.000E+00     0.000     0.000     0.000
BERM    1 000010001    1    0   85.83023E+03     0.000     0.000     0.000     0.000     6.297     2.227    88.556    86.329     0.000     0.000     0.000     0.126     0.000     0.000   990.153  2000.000     0.000     0.000     0.000     0.000     0.000     0.000    87.626    26.946    32.724    21.169    29.062    23.978     0.000     0.000     0.000     0.000     0.000     0.000     0.000     0.000     0.000     0.000     0.000     0.000     0.000     0.078    -0.003     0.000     0.013    -0.005     0.032     0.057     0.021     0.000     0.000     0.000     0.000     0.000     0.000     0.000     0.000     0.000     0.000     0.000     0.003     0.977     0.000     0.659     0.754     0.000 .00000E+00 .00000E+00 0.250E+01 0.361E+04 0.000E+00 0.154E+04 0.231E+06 0.000E+00 0.000E+00 0.000E+00     0.000     0.000     0.000
BERM    1 000010001    1    0   86.83023E+03     0.000     0.000     0.000     0.000     5.425     2.228    86.329    84.101     0.000     0.000     0.000     0.109     0.000     0.000   990.044  2000.000     0.000     0.000     0.000     0.000     0.000     0.000    87.389    26.651    32.188    21.114    28.916    25.073     0.000     0.000     0.000     0.000     0.000     0.000     0.000     0.000     0.000     0.000     0.000     0.000     0.000     0.078    -0.003     0.000     0.013    -0.004     0.034     0.057     0.021     0.000     0.000     0.000     0.000     0.000     0.000     0.000     0.000     0.000     0.000    -0.000     0.002     0.972     0.000     0.666     0.773     0.000 .00000E+00 .00000E+00 0.250E+01 0.361E+04 0.000E+00 0.154E+04 0.231E+06 0.000E+00 0.000E+00 0.000E+00     0.000     0.000     0.000
BERM    1 000010001    1    0   87.83023E+03     0.000     0.000     0.000     0.000     5.848     2.998    84.101    81.103     0.000     0.000     0.000     0.117     0.000     0.000   989.927  2000.000     0.000     0.000     0.000     0.000     0.000     0.000    87.147    28.295    33.905    22.686    28.932    25.876     0.000     0.000     0.000     0.000     0.000     0.000     0.000     0.000     0.000     0.000     0.000     0.000     0.000     0.077    -0.003     0.000     0.013    -0.002     0.035     0.056     0.021     0.000     0.000     0.000     0.000     0.000     0.000     0.000     0.000     0.000     0.000     0.000     0.012     0.969     0.000     0.672     0.793     0.000 .00000E+00 .00000E+00 0.250E+01 0.361E+04 0.000E+00 0.154E+04 0.231E+06 0.000E+00 0.000E+00 0.000E+00     0.000     0.000     0.000
BERM    1 000010001    1    0   88.83023E+03     0.000     0.000     0.000     0.000     5.513     2.569    81.103    78.534     0.000     0.000     0.000     0.110     0.000     0.000   989.817  2000.000     0.000     0.000     0.000     0.000     0.000     0.000    86.813    27.323    33.005    21.642    28.867    25.320     0.000     0.000     0.000     0.000     0.000     0.000     0.000     0.000     0.000     0.000     0.000     0.000     0.000     0.077    -0.004     0.000     0.013    -0.000     0.036     0.056     0.021     0.000     0.000     0.000     0.000     0.000     0.000     0.000     0.000     0.000     0.000     0.000     0.005     0.958     0.000     0.682     0.815     0.000 .00000E+00 .00000E+00 0.250E+01 0.361E+04 0.000E+00 0.154E+04 0.231E+06 0.000E+00 0.000E+00 0.000E+00     0.000     0.000     0.000
BERM    1 000010001    1    0   89.83023E+03     0.000     0.000     0.000     0.000     5.632     2.605    78.534    75.929     0.000     0.000     0.000     0.113     0.000     0.000   989.705  2000.000     0.000     0.000     0.000     0.000     0.000     0.000    86.518    27.989    33.323    22.654    28.859    25.485     0.000     0.000     0.000     0.000     0.000     0.000     0.000     0.000     0.000     0.000     0.000     0.000     0.000     0.076    -0.004     0.000     0.013     0.001     0.037     0.055     0.021     0.000     0.000     0.000     0.000     0.000     0.000     0.000     0.000     0.000     0.000     0.000     0.009     0.962     0.000     0.692     0.836     0.000 .00000E+00 .00000E+00 0.250E+01 0.361E+04 0.000E+00 0.154E+04 0.231E+06 0.000E+00 0.000E+00 0.000E+00     0.000     0.000     0.000
BERM    1 000010001    1    0   90.83023E+03     0.000     0.000     0.000     0.000     5.826     2.203    75.929    73.726     0.000     0.000     0.000     0.117     0.000     0.000   989.588  2000.000     0.000     0.000     0.000     0.000     0.000     0.000    86.210    26.719    32.108    21.330    28.771    25.768     0.000     0.000     0.000     0.000     0.000     0.000     0.000     0.000     0.000     0.000     0.000     0.000     0.000     0.075    -0.004     0.000     0.013     0.002     0.038     0.055     0.021     0.000     0.000     0.000     0.000     0.000     0.000     0.000     0.000     0.000     0.000     0.000     0.002     0.960     0.000     0.703     0.854     0.000 .00000E+00 .00000E+00 0.250E+01 0.361E+04 0.000E+00 0.154E+04 0.231E+06 0.000E+00 0.000E+00 0.000E+00     0.000     0.000     0.000
BERM    1 000010001    1    0   91.83023E+03     0.000     0.000     0.000     0.000     5.603     2.938    73.726    70.788     0.000     0.000     0.000     0.112     0.000     0.000   989.476  2000.000     0.000     0.000     0.000     0.000     0.000     0.000    85.943    30.307    36.141    24.473    28.910    23.194     0.000     0.000     0.000     0.000     0.000     0.000     0.000     0.000     0.000     0.000     0.000     0.000     0.000     0.075    -0.004     0.000     0.013     0.003     0.038     0.054     0.021     0.000     0.000     0.000     0.000     0.000     0.000     0.000     0.000     0.000     0.000     0.000     0.049     0.944     0.000     0.714     0.880     0.000 .00000E+00 .00000E+00 0.250E+01 0.361E+04 0.000E+00 0.154E+04 0.231E+06 0.000E+00 0.000E+00 0.000E+00     0.000     0.000     0.000
BERM    1 000010001    1    0   92.83023E+03     0.000     0.000     0.000     0.000     6.188     2.751    70.788    68.037     0.000     0.000     0.000     0.124     0.000     0.000   989.352  2000.000     0.000     0.000     0.000     0.000     0.000     0.000    85.577    29.415    35.013    23.818    28.973    24.357     0.000     0.000     0.000     0.000     0.000     0.000     0.000     0.000     0.000     0.000     0.000     0.000     0.000     0.074    -0.004     0.000     0.013     0.004     0.038     0.054     0.020     0.000     0.000     0.000     0.000     0.000     0.000     0.000     0.000     0.000     0.000     0.000     0.027     0.925     0.000     0.731     0.907     0.000 .00000E+00 .00000E+00 0.250E+01 0.361E+04 0.000E+00 0.154E+04 0.231E+06 0.000E+00 0.000E+00 0.000E+00     0.000     0.000     0.000
BERM    1 000010001    1    0   93.83023E+03     0.000     0.000     0.000     0.000     6.081     2.244    68.037    65.793     0.000     0.000     0.000     0.122     0.000     0.000   989.231  2000.000     0.000     0.000     0.000     0.000     0.000     0.000    85.224    28.941    33.646    24.236    28.934    19.647     0.000     0.000     0.000     0.000     0.000     0.000     0.000     0.000     0.000     0.000     0.000     0.000     0.000     0.074    -0.004     0.000     0.013     0.004     0.039     0.054     0.020     0.000     0.000     0.000     0.000     0.000     0.000     0.000     0.000     0.000     0.000     0.000     0.020     0.924     0.000     0.746     0.932     0.000 .00000E+00 .00000E+00 0.250E+01 0.361E+04 0.000E+00 0.154E+04 0.231E+06 0.000E+00 0.000E+00 0.000E+00     0.000     0.000     0.000
[...]
BERM    1 000010001    1    0  345.83023E+03     0.000     0.000     0.000     0.000     4.727     0.000   193.552   193.552     0.000     0.866     0.043     0.095     0.000     0.000  1015.924  2003.244     0.000     0.000     0.000     0.004     1.006     1.043    94.540    25.042    29.214    20.869    27.713    24.218     0.000     0.000     0.000     0.000     0.000     0.000     0.000     0.000     0.000     0.000     0.000     0.000     0.005     0.086    -0.012     0.001     0.015     0.023     0.037     0.090     0.000     0.000     0.047     0.006     0.009     0.000     0.000     0.000     0.000     0.000     0.000     0.000     0.000     0.000     0.000     0.000     0.000     0.000 .00000E+00 .00000E+00 0.247E+01 0.361E+04 0.000E+00 0.154E+04 0.231E+06 0.000E+00 0.000E+00 0.000E+00     0.033     0.004     0.000
BERM    1 000010001    1    0  346.83023E+03     0.000     0.000     0.000     0.000     4.932     0.000   193.552   193.552     0.000     0.839     0.042     0.099     0.000     0.000  1015.626  2003.254     0.000     0.000     0.000     0.004     0.997     1.033    94.540    24.454    29.433    19.474    27.539    24.246     0.000     0.000     0.000     0.000     0.000     0.000     0.000     0.000     0.000     0.000     0.000     0.000     0.005     0.086    -0.012     0.001     0.015     0.023     0.037     0.089     0.000     0.000     0.039     0.005     0.008     0.000     0.000     0.000     0.000     0.000     0.000     0.000     0.000     0.000     0.000     0.000     0.000     0.000 .00000E+00 .00000E+00 0.247E+01 0.361E+04 0.000E+00 0.154E+04 0.231E+06 0.000E+00 0.000E+00 0.000E+00     0.033     0.004     0.000
BERM    1 000010001    1    0  347.83023E+03     0.000     0.000     0.000     0.000     4.818     0.000   193.552   193.552     0.000     0.812     0.041     0.096     0.000     0.000  1015.315  2003.261     0.000     0.000     0.000     0.004     0.986     1.023    94.540    24.222    29.421    19.023    27.381    24.354     0.000     0.000     0.000     0.000     0.000     0.000     0.000     0.000     0.000     0.000     0.000     0.000     0.005     0.086    -0.012     0.001     0.015     0.023     0.037     0.089     0.000     0.000     0.032     0.004     0.006     0.000     0.000     0.000     0.000     0.000     0.000     0.000     0.000     0.000     0.000     0.000     0.000     0.000 .00000E+00 .00000E+00 0.247E+01 0.361E+04 0.000E+00 0.154E+04 0.231E+06 0.000E+00 0.000E+00 0.000E+00     0.033     0.004     0.000
BERM    1 000010001    1    0  348.83023E+03     0.000     0.000     0.000     0.000     5.190     0.000   193.552   193.552     0.000     0.787     0.039     0.104     0.000     0.000  1014.984  2003.268     0.000     0.000     0.000     0.004     0.975     1.012    94.540    24.194    28.985    19.404    27.240    24.074     0.000     0.000     0.000     0.000     0.000     0.000     0.000     0.000     0.000     0.000     0.000     0.000     0.005     0.085    -0.012     0.001     0.015     0.023     0.037     0.089     0.000     0.000     0.026     0.003     0.005     0.000     0.000     0.000     0.000     0.000     0.000     0.000     0.000     0.000     0.000     0.000     0.000     0.000 .00000E+00 .00000E+00 0.248E+01 0.361E+04 0.000E+00 0.154E+04 0.231E+06 0.000E+00 0.000E+00 0.000E+00     0.033     0.004     0.000
BERM    1 000010001    1    0  349.83023E+03     0.000     0.000     0.000     0.000     4.726     0.000   193.552   193.552     0.000     0.762     0.038     0.095     0.000     0.000  1014.650  2003.273     0.000     0.000     0.000     0.004     0.963     1.000    94.540    24.379    29.533    19.225    27.154    24.173     0.000     0.000     0.000     0.000     0.000     0.000     0.000     0.000     0.000     0.000     0.000     0.000     0.004     0.085    -0.012     0.001     0.015     0.022     0.036     0.089     0.000     0.000     0.022     0.003     0.004     0.000     0.000     0.000     0.000     0.000     0.000     0.000     0.000     0.000     0.000     0.000     0.000     0.000 .00000E+00 .00000E+00 0.248E+01 0.361E+04 0.000E+00 0.154E+04 0.231E+06 0.000E+00 0.000E+00 0.000E+00     0.033     0.004     0.000
BERM    1 000010001    1    0  350.83023E+03     0.000     0.000     0.000     0.000     5.408     0.000   193.552   193.552     0.000     0.737     0.037     0.108     0.000     0.000  1014.291  2003.277     0.000     0.000     0.000     0.004     0.951     0.987    94.540    23.618    28.861    18.376    27.009    24.347     0.000     0.000     0.000     0.000     0.000     0.000     0.000     0.000     0.000     0.000     0.000     0.000     0.004     0.085    -0.012     0.001     0.015     0.022     0.036     0.088     0.000     0.000     0.018     0.002     0.004     0.000     0.000     0.000     0.000     0.000     0.000     0.000     0.000     0.000     0.000     0.000     0.000     0.000 .00000E+00 .00000E+00 0.248E+01 0.361E+04 0.000E+00 0.154E+04 0.231E+06 0.000E+00 0.000E+00 0.000E+00     0.033     0.004     0.000
BERM    1 000010001    1    0  351.83023E+03     0.800     0.000     0.000     0.000     2.175     0.000   193.552   194.112     0.000     0.714     0.036     0.044     0.000     0.000  1013.988  2003.280     0.228     0.228     0.000     0.004     0.938     1.203    94.540    23.547    26.052    21.043    26.688     7.811     0.000     0.000     0.000     0.000     0.000     0.000     0.000     0.000     0.000     0.000     0.000     0.000     0.004     0.084    -0.012     0.001     0.014     0.024     0.038     0.087     0.000     0.000     0.016     0.002     0.003     0.000     0.000     0.000     0.000     0.000     0.000     0.000     0.000     0.000     0.000     0.000     0.000     0.000 .00000E+00 .00000E+00 0.248E+01 0.361E+04 0.000E+00 0.154E+04 0.231E+06 0.000E+00 0.000E+00 0.000E+00     0.033     0.004     0.000
BERM    1 000010001    1    0  352.83023E+03    29.000     0.000     0.000     0.000     1.925     1.920   194.112   195.706     6.053     0.883     0.044     0.038     0.000     0.000  1013.855  2003.291    19.407    19.403     0.000     0.004     0.933    20.374    94.562    23.512    26.386    20.638    26.450    11.484     0.018     0.000     0.000     0.000     0.000     0.000     0.000     0.000     0.000     0.000     0.000     0.000     0.004     0.084    -0.012     0.001     0.014     0.022     0.036     0.087     0.000     0.000     0.223     0.027     0.045     0.000     0.000     0.001     0.000     0.000     0.000     0.000     0.000     0.000     0.000     0.000     0.000     0.000 .00000E+00 .00000E+00 0.248E+01 0.361E+04 0.000E+00 0.154E+04 0.231E+06 0.000E+00 0.000E+00 0.000E+00     0.033     0.004     0.000
BERM    1 000010001    1    0  353.83023E+03     0.000     0.000     0.000     0.000     5.114     2.679   195.706   191.865     1.161     0.892     0.045     0.102     0.000     0.000  1013.671  2003.302     0.000     0.003     0.000     0.004     0.929     0.970    94.625    25.811    30.112    21.510    26.656    24.026     0.000     0.000     0.000     0.000     0.000     0.000     0.000     0.000     0.000     0.000     0.000     0.000     0.004     0.084    -0.012     0.001     0.014     0.022     0.035     0.087     0.000     0.000     0.183     0.023     0.037     0.000     0.000     0.000     0.000     0.000     0.000     0.000     0.000     0.000     0.000     0.000     0.000     0.000 .00000E+00 .00000E+00 0.249E+01 0.361E+04 0.000E+00 0.154E+04 0.231E+06 0.000E+00 0.000E+00 0.000E+00     0.033     0.004     0.000
BERM    1 000010001    1    0  354.83023E+03     7.100     0.000     0.000     0.000     1.799     0.943   191.865   194.471     0.954     0.894     0.045     0.036     0.000     0.000  1013.559  2003.314     2.590     2.590     0.000     0.004     0.926     3.553    94.473    26.287    27.603    24.970    26.761    10.270     0.000     0.000     0.000     0.000     0.000     0.000     0.000     0.000     0.000     0.000     0.000     0.000     0.004     0.084    -0.012     0.001     0.014     0.025     0.039     0.088     0.000     0.000     0.173     0.021     0.035     0.000     0.000     0.000     0.000     0.000     0.000     0.000     0.000     0.000     0.000     0.000     0.000     0.000 .00000E+00 .00000E+00 0.249E+01 0.361E+04 0.000E+00 0.154E+04 0.231E+06 0.000E+00 0.000E+00 0.000E+00     0.033     0.004     0.000
BERM    1 000010001    1    0  355.83023E+03    69.900     0.000     0.000     0.000     1.942     1.937   194.471   200.158    16.351     1.385     0.069     0.039     0.000     0.000  1013.892  2003.349    41.471    39.410     0.000     0.005     0.944    40.393    94.577    25.218    27.071    23.366    26.715    10.746     0.025     0.000     0.000     0.000     0.000     0.000     0.000     0.000     0.000     0.000     0.000     0.000     0.004     0.085    -0.012     0.001     0.015     0.022     0.035     0.088     0.000     0.000     0.588     0.072     0.120     0.000     0.000     0.003     0.000     0.001     0.000     0.000     0.000     0.000     0.000     0.000     0.000     0.000 .00000E+00 .00000E+00 0.249E+01 0.361E+04 0.000E+00 0.154E+04 0.231E+06 0.000E+00 0.000E+00 0.000E+00     0.034     0.005     0.000
BERM    1 000010001    1    0  356.83023E+03    43.700     0.000     0.000     0.000     1.501     0.786   200.158   199.888    13.077     1.756     0.088     0.030     0.000     0.000  1014.552  2003.403    25.077    24.056     0.000     0.005     0.978    25.073    94.794    24.226    25.999    22.454    26.578    10.928     0.017     0.000     0.000     0.000     0.000     0.000     0.000     0.000     0.000     0.000     0.000     0.000     0.004     0.084    -0.012     0.001     0.014     0.025     0.038     0.086     0.000     0.000     0.715     0.088     0.146     0.000     0.000     0.002     0.000     0.001     0.000     0.000     0.000     0.000     0.000     0.000     0.000     0.000 .00000E+00 .00000E+00 0.249E+01 0.361E+04 0.000E+00 0.154E+04 0.231E+06 0.000E+00 0.000E+00 0.000E+00     0.034     0.005     0.000
BERM    1 000010001    1    0  357.83023E+03    18.400     0.000     0.000     0.000     1.366     1.363   199.888   197.503     8.907     1.983     0.099     0.027     0.000     0.000  1015.388  2003.467    10.487    13.565     0.000     0.006     1.020    14.625    94.784    23.436    25.320    21.552    26.371     9.611     0.020     0.000     0.000     0.000     0.000     0.000     0.000     0.000     0.000     0.000     0.000     0.000     0.004     0.084    -0.012     0.001     0.014     0.022     0.036     0.085     0.000     0.000     0.684     0.084     0.139     0.000     0.000     0.001     0.000     0.001     0.000     0.000     0.000     0.000     0.000     0.000     0.000     0.000 .00000E+00 .00000E+00 0.249E+01 0.361E+04 0.000E+00 0.154E+04 0.231E+06 0.000E+00 0.000E+00 0.000E+00     0.035     0.006     0.000
BERM    1 000010001    1    0  358.83023E+03     7.400     0.000     0.000     0.000     1.715     0.899   197.503   196.347     5.174     2.084     0.104     0.034     0.000     0.000  1016.269  2003.536     2.467     2.473     0.000     0.006     1.065     3.579    94.694    22.785    25.307    20.263    26.125    11.039     0.000     0.000     0.000     0.000     0.000     0.000     0.000     0.000     0.000     0.000     0.000     0.000     0.004     0.083    -0.012     0.001     0.014     0.024     0.037     0.084     0.000     0.000     0.580     0.071     0.118     0.000     0.000     0.001     0.000     0.001     0.000     0.000     0.000     0.000     0.000     0.000     0.000     0.000 .00000E+00 .00000E+00 0.249E+01 0.361E+04 0.000E+00 0.154E+04 0.231E+06 0.000E+00 0.000E+00 0.000E+00     0.036     0.006     0.000
BERM    1 000010001    1    0  359.83023E+03     0.000     0.000     0.000     0.000     5.267     2.759   196.347   192.647     0.938     2.048     0.102     0.105     0.000     0.000  1017.002  2003.602     0.000     0.000     0.000     0.006     1.107     1.149    94.649    24.671    29.910    19.433    26.290    24.080     0.000     0.000     0.000     0.000     0.000     0.000     0.000     0.000     0.000     0.000     0.000     0.000     0.004     0.083    -0.012     0.001     0.014     0.023     0.037     0.085     0.000     0.000     0.478     0.059     0.097     0.000     0.000     0.000     0.000     0.001     0.000     0.000     0.000     0.000     0.000     0.000     0.000     0.000 .00000E+00 .00000E+00 0.249E+01 0.361E+04 0.000E+00 0.154E+04 0.231E+06 0.000E+00 0.000E+00 0.000E+00     0.036     0.006     0.000
BERM    1 000010001    1    0  360.83023E+03     0.000     0.000     0.000     0.000     5.989     0.000   192.647   192.647     0.000     1.983     0.099     0.120     0.000     0.000  1017.623  2003.664     0.000     0.000     0.000     0.006     1.143     1.186    94.505    26.480    31.244    21.716    26.613    24.387     0.000     0.000     0.000     0.000     0.000     0.000     0.000     0.000     0.000     0.000     0.000     0.000     0.004     0.084    -0.013     0.001     0.014     0.023     0.036     0.087     0.000     0.000     0.394     0.048     0.080     0.000     0.000     0.000     0.000     0.000     0.000     0.000     0.000     0.000     0.000     0.000     0.000     0.000 .00000E+00 .00000E+00 0.249E+01 0.361E+04 0.000E+00 0.154E+04 0.231E+06 0.000E+00 0.000E+00 0.000E+00     0.037     0.006     0.000
BERM    1 000010001    1    0  361.83023E+03     0.000     0.000     0.000     0.000     4.877     0.000   192.647   192.647     0.000     1.920     0.096     0.098     0.000     0.000  1018.175  2003.723     0.000     0.000     0.000     0.006     1.175     1.218    94.505    25.277    30.882    19.673    26.755    24.267     0.000     0.000     0.000     0.000     0.000     0.000     0.000     0.000     0.000     0.000     0.000     0.000     0.004     0.084    -0.013     0.001     0.014     0.023     0.036     0.087     0.000     0.000     0.324     0.040     0.066     0.000     0.000     0.000     0.000     0.000     0.000     0.000     0.000     0.000     0.000     0.000     0.000     0.000 .00000E+00 .00000E+00 0.249E+01 0.361E+04 0.000E+00 0.154E+04 0.231E+06 0.000E+00 0.000E+00 0.000E+00     0.037     0.006     0.000
BERM    1 000010001    1    0  362.83023E+03     0.000     0.000     0.000     0.000     6.577     0.000   192.647   192.647     0.000     1.859     0.093     0.132     0.000     0.000  1018.607  2003.778     0.000     0.000     0.000     0.006     1.203     1.246    94.505    25.870    31.717    20.023    26.934    24.175     0.000     0.000     0.000     0.000     0.000     0.000     0.000     0.000     0.000     0.000     0.000     0.000     0.004     0.084    -0.013     0.001     0.014     0.023     0.036     0.088     0.000     0.000     0.267     0.033     0.054     0.000     0.000     0.000     0.000     0.000     0.000     0.000     0.000     0.000     0.000     0.000     0.000     0.000 .00000E+00 .00000E+00 0.249E+01 0.361E+04 0.000E+00 0.154E+04 0.231E+06 0.000E+00 0.000E+00 0.000E+00     0.038     0.006     0.000
BERM    1 000010001    1    0  363.83023E+03     0.000     0.000     0.000     0.000     5.019     0.000   192.647   192.647     0.000     1.800     0.090     0.100     0.000     0.000  1018.990  2003.829     0.000     0.000     0.000     0.006     1.226     1.270    94.505    26.397    31.392    21.401    27.120    24.223     0.000     0.000     0.000     0.000     0.000     0.000     0.000     0.000     0.000     0.000     0.000     0.000     0.004     0.085    -0.013     0.001     0.015     0.022     0.036     0.088     0.000     0.000     0.220     0.027     0.045     0.000     0.000     0.000     0.000     0.000     0.000     0.000     0.000     0.000     0.000     0.000     0.000     0.000 .00000E+00 .00000E+00 0.249E+01 0.361E+04 0.000E+00 0.154E+04 0.231E+06 0.000E+00 0.000E+00 0.000E+00     0.038     0.006     0.000
BERM    1 000010001    1    0  364.83023E+03     0.000     0.000     0.000     0.000     5.818     0.000   192.647   192.647     0.000     1.743     0.087     0.116     0.000     0.000  1019.283  2003.878     0.000     0.000     0.000     0.005     1.247     1.291    94.505    24.383    28.906    19.861    27.049    24.230     0.000     0.000     0.000     0.000     0.000     0.000     0.000     0.000     0.000     0.000     0.000     0.000     0.004     0.085    -0.013     0.001     0.014     0.022     0.035     0.088     0.000     0.000     0.181     0.022     0.037     0.000     0.000     0.000     0.000     0.000     0.000     0.000     0.000     0.000     0.000     0.000     0.000     0.000 .00000E+00 .00000E+00 0.250E+01 0.361E+04 0.000E+00 0.154E+04 0.231E+06 0.000E+00 0.000E+00 0.000E+00     0.039     0.005     0.000
BERM    1 000010001    1    0  365.83023E+03     0.000     0.000     0.000     0.000     8.313     0.000   192.647   192.647     0.000     1.688     0.084     0.166     0.000     0.000  1019.456  2003.923     0.000     0.000     0.000     0.005     1.263     1.308    94.505    24.020    28.572    19.468    26.958    24.462     0.000     0.000     0.000     0.000     0.000     0.000     0.000     0.000     0.000     0.000     0.000     0.000     0.004     0.084    -0.013     0.001     0.014     0.022     0.035     0.087     0.000     0.000     0.149     0.018     0.030     0.000     0.000     0.000     0.000     0.000     0.000     0.000     0.000     0.000     0.000     0.000     0.000     0.000 .00000E+00 .00000E+00 0.250E+01 0.361E+04 0.000E+00 0.154E+04 0.231E+06 0.000E+00 0.000E+00 0.000E+00     0.039     0.005     0.000
BERM    1 000010001    1    0 2001.83023E+03  1429.700     0.000     0.000     0.000  1935.016   281.763   119.299   192.647   169.316   117.842     5.892    38.700     0.000     0.000  1019.456  2003.923   854.397   854.397     0.000     0.606    53.793   910.766    88.985    28.697    33.545    23.849    28.495    19.448     0.771     0.000     0.000     0.000   350.000     0.000     0.000     0.000     0.000     0.000     0.000     0.000     3.178    28.959    -2.349     0.897     4.965    21.471    77.967   398.321    20.013     5.647    91.596    11.315    18.112     0.011     0.000     0.027     0.000     0.124     0.000    32.919     6.999    69.199     0.000     2.959     1.374     2.104 .00000E+00 .00000E+00 0.250E+01 0.361E+04 0.000E+00 0.154E+04 0.231E+06 0.000E+00 0.000E+00 0.000E+00     1.970     0.606     0.000
BERM    1 000010001    1    0  1.0.83023E+03  1429.700     0.000     0.000     0.000  1935.016   281.763   119.168   192.647   169.316   117.842     5.892    38.700     0.000     0.000  1019.456  2003.923   854.397   854.397     0.000     0.606    53.793   910.766    88.888    28.665    33.508    23.823    28.463    19.427     0.771     0.000     0.000     0.000   350.000     0.000     0.000     0.000     0.000     0.000     0.000     0.000     3.178    28.959    -2.349     0.897     4.965    21.471    77.967   398.321    20.013     5.647    91.596    11.315    18.112     0.011     0.000     0.027     0.000     0.124     0.000    32.919     6.999    69.199     0.000     2.959     1.374     2.104 .00000E+00 .00000E+00 0.250E+01 0.000E+00 0.000E+00 0.154E+04 0.231E+06 0.000E+00 0.000E+00 0.000E+00     1.970     0.606     0.000
