1
    SWAT Sep 7    VER 2018/Rev 670                                                                       0/ 0/   0      0: 0: 0

    General Input/Output section (file.cio):                                        
    02/05/2024 12:00:00 AM ARCGIS-SWAT interface AV                                 
                                                                                    
         Number of years in run:    1
         Area of watershed:      830.234 km2
1
    SWAT Sep 7    VER 2018/Rev 670                                                  

    General Input/Output section (file.cio):                                        
    02/05/2024 12:00:00 AM ARCGIS-SWAT interface AV                                 
                                                                                    
Annual Summary for Watershed in year    1 of simulation

UNIT                                    PERCO    TILE                           WATER     SED     NO3     NO3     NO3     NO3        N       P       P
TIME     PREC    SURQ    LATQ     GWQ    LATE       Q     SW       ET     PET   YIELD   YIELD    SURQ    LATQ    PERC    CROP  ORGANIC SOLUBLE ORGANIC TILENO3
         (mm)    (mm)    (mm)    (mm)    (mm)    (mm)    (mm)    (mm)    (mm)    (mm)   (t/ha)  ------------------(kg nutrient/ha)-------------------- (kg/ha)
    1    0.00    0.00    0.00    0.00    0.00    0.00  131.14    0.00    5.10    0.00    0.00    0.00    0.00    0.00    0.00     0.00    0.00    0.00    0.00    0.00
    2    0.00    0.00    0.00    0.00    0.00    0.00  131.14    0.00    7.03    0.00    0.00    0.00    0.00    0.00    0.00     0.00    0.00    0.00    0.00    0.00
    3    0.00    0.00    0.00    0.00    0.00    0.00  131.14    0.00    5.78    0.00    0.00    0.00    0.00    0.00    0.00     0.00    0.00    0.00    0.00    0.00
    4    0.00    0.00    0.00    0.00    0.00    0.00  131.14    0.00    5.32    0.00    0.00    0.00    0.00    0.00    0.00     0.00    0.00    0.00    0.00    0.00
    5    0.00    0.00    0.00    0.00    0.00    0.00  131.14    0.00    5.46    0.00    0.00    0.00    0.00    0.00    0.00     0.00    0.00    0.00    0.00    0.00
    6    0.00    0.00    0.00    0.00    0.00    0.00  131.14    0.00    5.57    0.00    0.00    0.00    0.00    0.00    0.00     0.00    0.00    0.00    0.00    0.00
    7    0.00    0.00    0.00    0.00    0.00    0.00  131.14    0.00    5.73    0.00    0.00    0.00    0.00    0.00    0.00     0.00    0.00    0.00    0.00    0.00
    8    0.00    0.00    0.00    0.00    0.00    0.00  131.14    0.00    5.54    0.00    0.00    0.00    0.00    0.00    0.00     0.00    0.00    0.00    0.00    0.00
    9    0.00    0.00    0.00    0.00    0.00    0.00  131.14    0.00    5.23    0.00    0.00    0.00    0.00    0.00    0.00     0.00    0.00    0.00    0.00    0.00
   10    0.00    0.00    0.00    0.00    0.00    0.00  131.14    0.00    6.24    0.00    0.00    0.00    0.00    0.00    0.00     0.00    0.00    0.00    0.00    0.00
   11    0.00    0.00    0.00    0.00    0.00    0.00  131.14    0.00    5.05    0.00    0.00    0.00    0.00    0.00    0.00     0.00    0.00    0.00    0.00    0.00
   12    0.00    0.00    0.00    0.00    0.00    0.00  131.14    0.00    5.21    0.00    0.00    0.00    0.00    0.00    0.00     0.00    0.00    0.00    0.00    0.00
   13    0.00    0.00    0.00    0.00    0.00    0.00  131.14    0.00    4.88    0.00    0.00    0.00    0.00    0.00    0.00     0.00    0.00    0.00    0.00    0.00
   14    0.00    0.00    0.00    0.00    0.00    0.00  131.14    0.00    5.65    0.00    0.00    0.00    0.00    0.00    0.00     0.00    0.00    0.00    0.00    0.00
   15    0.00    0.00    0.00    0.00    0.00    0.00  131.14    0.00    5.55    0.00    0.00    0.00    0.00    0.00    0.00     0.00    0.00    0.00    0.00    0.00
   16    0.00    0.00    0.00    0.00    0.00    0.00  131.14    0.00    5.96    0.00    0.00    0.00    0.00    0.00    0.00     0.00    0.00    0.00    0.00    0.00
   17    0.00    0.00    0.00    0.00    0.00    0.00  131.14    0.00    4.90    0.00    0.00    0.00    0.00    0.00    0.00     0.00    0.00    0.00    0.00    0.00
   18    0.00    0.00    0.00    0.00    0.00    0.00  131.14    0.00    5.33    0.00    0.00    0.00    0.00    0.00    0.00     0.00    0.00    0.00    0.00    0.00
   19    0.00    0.00    0.00    0.00    0.00    0.00  131.14    0.00    4.85    0.00    0.00    0.00    0.00    0.00    0.00     0.00    0.00    0.00    0.00    0.00
   20    0.00    0.00    0.00    0.00    0.00    0.00  131.14    0.00    4.74    0.00    0.00    0.00    0.00    0.00    0.00     0.00    0.00    0.00    0.00    0.00
   21    0.00    0.00    0.00    0.00    0.00    0.00  131.14    0.00    6.45    0.00    0.00    0.00    0.00    0.00    0.00     0.00    0.00    0.00    0.00    0.00
   22    0.00    0.00    0.00    0.00    0.00    0.00  131.14    0.00    6.66    0.00    0.00    0.00    0.00    0.00    0.00     0.00    0.00    0.00    0.00    0.00
   23    0.00    0.00    0.00    0.00    0.00    0.00  131.14    0.00    4.79    0.00    0.00    0.00    0.00    0.00    0.00     0.00    0.00    0.00    0.00    0.00
   24    0.00    0.00    0.00    0.00    0.00    0.00  131.14    0.00    5.14    0.00    0.00    0.00    0.00    0.00    0.00     0.00    0.00    0.00    0.00    0.00
   25    0.00    0.00    0.00    0.00    0.00    0.00  131.14    0.00    6.32    0.00    0.00    0.00    0.00    0.00    0.00     0.00    0.00    0.00    0.00    0.00
   26    0.00    0.00    0.00    0.00    0.00    0.00  131.14    0.00    5.60    0.00    0.00    0.00    0.00    0.00    0.00     0.00    0.00    0.00    0.00    0.00
   27    0.00    0.00    0.00    0.00    0.00    0.00  131.14    0.00    5.04    0.00    0.00    0.00    0.00    0.00    0.00     0.00    0.00    0.00    0.00    0.00
   28    0.00    0.00    0.00    0.00    0.00    0.00  131.14    0.00    5.10    0.00    0.00    0.00    0.00    0.00    0.00     0.00    0.00    0.00    0.00    0.00
   29    0.00    0.00    0.00    0.00    0.00    0.00  131.14    0.00    5.02    0.00    0.00    0.00    0.00    0.00    0.00     0.00    0.00    0.00    0.00    0.00
   30    0.00    0.00    0.00    0.00    0.00    0.00  131.14    0.00    5.34    0.00    0.00    0.00    0.00    0.00    0.00     0.00    0.00    0.00    0.00    0.00
   31    0.00    0.00    0.00    0.00    0.00    0.00  131.14    0.00    5.23    0.00    0.00    0.00    0.00    0.00    0.00     0.00    0.00    0.00    0.00    0.00
    1    0.00    0.00    0.00    0.00    0.00    0.00  131.14    0.00  169.80    0.00    0.00    0.00    0.00    0.00    0.00     0.00    0.00    0.00    0.00    0.00
   32    0.00    0.00    0.00    0.00    0.00    0.00  131.14    0.00    5.46    0.00    0.00    0.00    0.00    0.00    0.00     0.00    0.00    0.00    0.00    0.00
   33    0.00    0.00    0.00    0.00    0.00    0.00  131.14    0.00    6.20    0.00    0.00    0.00    0.00    0.00    0.00     0.00    0.00    0.00    0.00    0.00
   34    0.00    0.00    0.00    0.00    0.00    0.00  131.14    0.00    6.13    0.00    0.00    0.00    0.00    0.00    0.00     0.00    0.00    0.00    0.00    0.00
   35    0.00    0.00    0.00    0.00    0.00    0.00  131.14    0.00    5.17    0.00    0.00    0.00    0.00    0.00    0.00     0.00    0.00    0.00    0.00    0.00
   36    0.00    0.00    0.00    0.00    0.00    0.00  131.14    0.00    5.83    0.00    0.00    0.00    0.00    0.00    0.00     0.00    0.00    0.00    0.00    0.00
   37    0.00    0.00    0.00    0.00    0.00    0.00  131.14    0.00    5.21    0.00    0.00    0.00    0.00    0.00    0.00     0.00    0.00    0.00    0.00    0.00
   38    0.00    0.00    0.00    0.00    0.00    0.00  131.14    0.00    6.53    0.00    0.00    0.00    0.00    0.00    0.00     0.00    0.00    0.00    0.00    0.00
   39    0.00    0.00    0.00    0.00    0.00    0.00  131.14    0.00    5.60    0.00    0.00    0.00    0.00    0.00    0.00     0.00    0.00    0.00    0.00    0.00
   40    0.00    0.00    0.00    0.00    0.00    0.00  131.14    0.00    6.31    0.00    0.00    0.00    0.00    0.00    0.00     0.00    0.00    0.00    0.00    0.00
   41    0.00    0.00    0.00    0.00    0.00    0.00  131.14    0.00    5.46    0.00    0.00    0.00    0.00    0.00    0.00     0.00    0.00    0.00    0.00    0.00
   42    0.00    0.00    0.00    0.00    0.00    0.00  131.14    0.00    5.06    0.00    0.00    0.00    0.00    0.00    0.00     0.00    0.00    0.00    0.00    0.00
   43    0.00    0.00    0.00    0.00    0.00    0.00  131.14    0.00    5.72    0.00    0.00    0.00    0.00    0.00    0.00     0.00    0.00    0.00    0.00    0.00
   44    0.00    0.00    0.00    0.00    0.00    0.00  131.14    0.00    6.17    0.00    0.00    0.00    0.00    0.00    0.00     0.00    0.00    0.00    0.00    0.00
   45    0.00    0.00    0.00    0.00    0.00    0.00  131.14    0.00    6.35    0.00    0.00    0.00    0.00    0.00    0.00     0.00    0.00    0.00    0.00    0.00
   46    0.00    0.00    0.00    0.00    0.00    0.00  131.14    0.00    6.45    0.00    0.00    0.00    0.00    0.00    0.00     0.00    0.00    0.00    0.00    0.00
   47    0.00    0.00    0.00    0.00    0.00    0.00  131.14    0.00    5.48    0.00    0.00    0.00    0.00    0.00    0.00     0.00    0.00    0.00    0.00    0.00
   48    0.00    0.00    0.00    0.00    0.00    0.00  131.14    0.00    5.86    0.00    0.00    0.00    0.00    0.00    0.00     0.00    0.00    0.00    0.00    0.00
   49    0.00    0.00    0.00    0.00    0.00    0.00  131.14    0.00    5.89    0.00    0.00    0.00    0.00    0.00    0.00     0.00    0.00    0.00    0.00    0.00
   50    0.00    0.00    0.00    0.00    0.00    0.00  131.14    0.00    5.63    0.00    0.00    0.00    0.00    0.00    0.00     0.00    0.00    0.00    0.00    0.00
   51    0.00    0.00    0.00    0.00    0.00    0.00  131.14    0.00    5.55    0.00    0.00    0.00    0.00    0.00    0.00     0.00    0.00    0.00    0.00    0.00
   52    0.00    0.00    0.00    0.00    0.00    0.00  131.14    0.00    6.56    0.00    0.00    0.00    0.00    0.00    0.00     0.00    0.00    0.00    0.00    0.00
   53    0.00    0.00    0.00    0.00    0.00    0.00  131.14    0.00    6.01    0.00    0.00    0.00    0.00    0.00    0.00     0.00    0.00    0.00    0.00    0.00
   54    0.00    0.00    0.00    0.00    0.00    0.00  131.14    0.00    5.08    0.00    0.00    0.00    0.00    0.00    0.00     0.00    0.00    0.00    0.00    0.00
   55    0.00    0.00    0.00    0.00    0.00    0.00  131.14    0.00    6.52    0.00    0.00    0.00    0.00    0.00    0.00     0.00    0.00    0.00    0.00    0.00
   56    0.00    0.00    0.00    0.00    0.00    0.00  131.14    0.00    5.59    0.00    0.00    0.00    0.00    0.00    0.00     0.00    0.00    0.00    0.00    0.00
   57    0.00    0.00    0.00    0.00    0.00    0.00  131.14    0.00    6.94    0.00    0.00    0.00    0.00    0.00    0.00     0.00    0.00    0.00    0.00    0.00
   58    0.00    0.00    0.00    0.00    0.00    0.00  131.14    0.00    6.23    0.00    0.00    0.00    0.00    0.00    0.00     0.00    0.00    0.00    0.00    0.00
   59    0.00    0.00    0.00    0.00    0.00    0.00  131.14    0.00    5.58    0.00    0.00    0.00    0.00    0.00    0.00     0.00    0.00    0.00    0.00    0.00
    2    0.00    0.00    0.00    0.00    0.00    0.00  131.14    0.00  164.56    0.00    0.00    0.00    0.00    0.00    0.00     0.00    0.00    0.00    0.00    0.00
   60    0.00    0.00    0.00    0.00    0.00    0.00  131.14    0.00    5.89    0.00    0.00    0.00    0.00    0.00    0.00     0.00    0.00    0.00    0.00    0.00
   61    0.00    0.00    0.00    0.00    0.00    0.00  131.14    0.00    5.57    0.00    0.00    0.00    0.00    0.00    0.00     0.00    0.00    0.00    0.00    0.00
   62    0.00    0.00    0.00    0.00    0.00    0.00  131.02    0.12    6.46    0.00    0.00    0.00    0.00    0.00    0.00     0.00    0.00    0.00    0.00    0.00
   63    0.00    0.00    0.00    0.00    0.00    0.00  130.78    0.24    5.72    0.00    0.00    0.00    0.00    0.00    0.03     0.00    0.00    0.00    0.00    0.00
   64    0.00    0.00    0.00    0.00    0.00    0.00  130.43    0.35    6.45    0.00    0.00    0.00    0.00    0.00    0.02     0.00    0.00    0.00    0.00    0.00
   65    0.00    0.00    0.00    0.00    0.00    0.00  129.96    0.47    6.28    0.00    0.00    0.00    0.00    0.00    1.17     0.00    0.00    0.00    0.00    0.00
   66    0.00    0.00    0.00    0.00    0.00    0.00  129.35    0.61    6.26    0.00    0.00    0.00    0.00    0.00    1.36     0.00    0.00    0.00    0.00    0.00
   67    0.00    0.00    0.00    0.00    0.00    0.00  128.54    0.81    6.18    0.00    0.00    0.00    0.00    0.00    0.54     0.00    0.00    0.00    0.00    0.00
   68    0.00    0.00    0.00    0.00    0.00    0.00  126.44    2.10    5.31    0.00    0.00    0.00    0.00    0.00    3.75     0.00    0.00    0.00    0.00    0.00
   69    0.00    0.00    0.00    0.00    0.00    0.00  124.81    1.63    5.46    0.00    0.00    0.00    0.00    0.00    1.50     0.00    0.00    0.00    0.00    0.00
   70    0.00    0.00    0.00    0.00    0.00    0.00  123.49    1.32    6.12    0.00    0.00    0.00    0.00    0.00    0.89     0.00    0.00    0.00    0.00    0.00
   71    0.00    0.00    0.00    0.00    0.00    0.00  120.92    2.57    5.75    0.00    0.00    0.00    0.00    0.00    6.94     0.00    0.00    0.00    0.00    0.00
   72    0.00    0.00    0.00    0.00    0.00    0.00  118.76    2.16    5.83    0.00    0.00    0.00    0.00    0.00    1.14     0.00    0.00    0.00    0.00    0.00
   73    0.00    0.00    0.00    0.00    0.00    0.00  116.17    2.60    6.34    0.00    0.00    0.00    0.00    0.00    1.12     0.00    0.00    0.00    0.00    0.00
   74    0.00    0.00    0.00    0.00    0.00    0.00  113.68    2.49    6.84    0.00    0.00    0.00    0.00    0.00    0.10     0.00    0.00    0.00    0.00    0.00
   75    0.00    0.00    0.00    0.00    0.00    0.00  111.52    2.17    5.94    0.00    0.00    0.00    0.00    0.00    0.02     0.00    0.00    0.00    0.00    0.00
   76    0.00    0.00    0.00    0.00    0.00    0.00  109.33    2.18    7.16    0.00    0.00    0.00    0.00    0.00    0.02     0.00    0.00    0.00    0.00    0.00
   77    0.00    0.00    0.00    0.00    0.00    0.00  107.04    2.29    7.33    0.00    0.00    0.00    0.00    0.00    0.02     0.00    0.00    0.00    0.00    0.00
   78    0.00    0.00    0.00    0.00    0.00    0.00  104.44    2.60    5.89    0.00    0.00    0.00    0.00    0.00    0.02     0.00    0.00    0.00    0.00    0.00
   79    0.00    0.00    0.00    0.00    0.00    0.00  101.51    2.94    5.60    0.00    0.00    0.00    0.00    0.00    0.02     0.00    0.00    0.00    0.00    0.00
   80    0.00    0.00    0.00    0.00    0.00    0.00   99.15    2.36    5.61    0.00    0.00    0.00    0.00    0.00    0.02     0.00    0.00    0.00    0.00    0.00
   81    0.00    0.00    0.00    0.00    0.00    0.00   96.41    2.74    5.79    0.00    0.00    0.00    0.00    0.00    0.02     0.00    0.00    0.00    0.00    0.00
   82    0.00    0.00    0.00    0.00    0.00    0.00   94.09    2.32    6.18    0.00    0.00    0.00    0.00    0.00    0.02     0.00    0.00    0.00    0.00    0.00
   83    0.00    0.00    0.00    0.00    0.00    0.00   91.23    2.86    5.95    0.00    0.00    0.00    0.00    0.00    0.02     0.00    0.00    0.00    0.00    0.00
   84    0.00    0.00    0.00    0.00    0.00    0.00   88.56    2.67    5.76    0.00    0.00    0.00    0.00    0.00    0.02     0.00    0.00    0.00    0.00    0.00
   85    0.00    0.00    0.00    0.00    0.00    0.00   86.33    2.23    6.30    0.00    0.00    0.00    0.00    0.00    0.02     0.00    0.00    0.00    0.00    0.00
   86    0.00    0.00    0.00    0.00    0.00    0.00   84.10    2.23    5.43    0.00    0.00    0.00    0.00    0.00    0.02     0.00    0.00    0.00    0.00    0.00
   87    0.00    0.00    0.00    0.00    0.00    0.00   81.10    3.00    5.85    0.00    0.00    0.00    0.00    0.00    0.02     0.00    0.00    0.00    0.00    0.00
   88    0.00    0.00    0.00    0.00    0.00    0.00   78.53    2.57    5.51    0.00    0.00    0.00    0.00    0.00    0.02     0.00    0.00    0.00    0.00    0.00
   89    0.00    0.00    0.00    0.00    0.00    0.00   75.93    2.60    5.63    0.00    0.00    0.00    0.00    0.00    0.02     0.00    0.00    0.00    0.00    0.00
   90    0.00    0.00    0.00    0.00    0.00    0.00   73.73    2.20    5.83    0.00    0.00    0.00    0.00    0.00    0.02     0.00    0.00    0.00    0.00    0.00
    3    0.00    0.00    0.00    0.00    0.00    0.00   73.73   57.42  186.24    0.00    0.00    0.00    0.00    0.00   18.92     0.00    0.00    0.00    0.00    0.00
   91    0.00    0.00    0.00    0.00    0.00    0.00   70.79    2.94    5.60    0.00    0.00    0.00    0.00    0.00    0.02     0.00    0.00    0.00    0.00    0.00
   92    0.00    0.00    0.00    0.00    0.00    0.00   68.04    2.75    6.19    0.00    0.00    0.00    0.00    0.00    0.02     0.00    0.00    0.00    0.00    0.00
   93    0.00    0.00    0.00    0.00    0.00    0.00   65.79    2.24    6.08    0.00    0.00    0.00    0.00    0.00    0.02     0.00    0.00    0.00    0.00    0.00
   94    0.00    0.00    0.00    0.00    0.00    0.00   62.65    3.14    7.67    0.00    0.00    0.00    0.00    0.00    0.02     0.00    0.00    0.00    0.00    0.00
   95    0.00    0.00    0.00    0.00    0.00    0.00   59.90    2.75    6.51    0.00    0.00    0.00    0.00    0.00    0.02     0.00    0.00    0.00    0.00    0.00
   96    0.00    0.00    0.00    0.00    0.00    0.00   57.33    2.57    6.67    0.00    0.00    0.00    0.00    0.00    0.02     0.00    0.00    0.00    0.00    0.00
   97    0.00    0.00    0.00    0.00    0.00    0.00   54.89    2.44    6.69    0.00    0.00    0.00    0.00    0.00    0.02     0.00    0.00    0.00    0.00    0.00
   98    0.00    0.00    0.00    0.00    0.00    0.00   52.29    2.60    6.52    0.00    0.00    0.00    0.00    0.00    0.02     0.00    0.00    0.00    0.00    0.00
   99    0.00    0.00    0.00    0.00    0.00    0.00   49.90    2.39    4.64    0.00    0.00    0.00    0.00    0.00    0.02     0.00    0.00    0.00    0.00    0.00
  100    0.00    0.00    0.00    0.00    0.00    0.00   47.34    2.56    6.48    0.00    0.00    0.00    0.00    0.00    0.02     0.00    0.00    0.00    0.00    0.00
  101   12.60    2.90    0.00    0.00    0.00    0.00   56.64    1.41    1.96    2.90    0.00    0.00    0.00    0.00    0.02     0.01    0.00    0.00    0.00    1.10
  102   29.00    6.68    0.00    0.00    0.00    0.00   77.69    2.88    3.89    6.69    0.00    0.00    0.00    0.00    0.02     0.03    0.00    0.00    0.00    2.55
  103   44.80   11.80    0.00    0.00    0.00    0.00  111.85    1.78    3.99   11.75    0.00    0.00    0.00    0.00    0.02     0.07    0.00    0.01    0.00    3.33
  104   12.50    1.92    0.00    0.00    0.00    0.00  122.60    1.15    1.63    1.98    0.00    0.00    0.00    0.00    0.02     0.06    0.00    0.01    0.00    0.14
  105    0.00    0.00    0.00    0.00    0.00    0.00  119.45    3.14    6.44    0.00    0.00    0.00    0.00    0.00    0.02     0.05    0.00    0.01    0.00    0.00
  106    0.00    0.00    0.00    0.00    0.00    0.00  115.85    3.60    6.95    0.00    0.00    0.00    0.00    0.00    0.02     0.04    0.00    0.01    0.00    0.00
  107    0.00    0.00    0.00    0.00    0.00    0.00  112.60    3.25    6.63    0.00    0.00    0.00    0.00    0.00    0.02     0.03    0.00    0.00    0.00    0.00
  108    0.00    0.00    0.00    0.00    0.00    0.00  109.16    3.44    6.48    0.00    0.00    0.00    0.00    0.00    0.02     0.03    0.00    0.00    0.00    0.00
  109    0.00    0.00    0.00    0.00    0.00    0.00  105.81    3.35    6.84    0.00    0.00    0.00    0.00    0.00    0.02     0.02    0.00    0.00    0.00    0.00
  110    0.00    0.00    0.00    0.00    0.00    0.00  102.23    3.58    6.37    0.00    0.00    0.00    0.00    0.00    0.02     0.02    0.00    0.00    0.00    0.00
  111    0.00    0.00    0.00    0.00    0.00    0.00   98.72    3.51    6.61    0.00    0.00    0.00    0.00    0.00    0.02     0.02    0.00    0.00    0.00    0.00
  112    0.00    0.00    0.00    0.00    0.00    0.00   94.88    3.84    7.78    0.00    0.00    0.00    0.00    0.00    0.02     0.01    0.00    0.00    0.00    0.00
  113    0.00    0.00    0.00    0.00    0.00    0.00   91.71    3.17    8.29    0.00    0.00    0.00    0.00    0.00    0.02     0.01    0.00    0.00    0.00    0.00
  114    0.00    0.00    0.00    0.00    0.00    0.00   88.29    3.42    7.40    0.00    0.00    0.00    0.00    0.00    0.02     0.01    0.00    0.00    0.00    0.00
  115    0.00    0.00    0.00    0.00    0.00    0.00   84.54    3.75    8.07    0.00    0.00    0.00    0.00    0.00    0.02     0.01    0.00    0.00    0.00    0.00
  116    0.00    0.00    0.00    0.00    0.00    0.00   81.55    2.99    6.13    0.00    0.00    0.00    0.00    0.00    0.02     0.01    0.00    0.00    0.00    0.00
  117    0.00    0.00    0.00    0.00    0.00    0.00   79.34    2.21    5.06    0.00    0.00    0.00    0.00    0.00    0.02     0.00    0.00    0.00    0.00    0.00
  118    0.00    0.00    0.00    0.00    0.00    0.00   75.62    3.72    6.78    0.00    0.00    0.00    0.00    0.00    0.02     0.00    0.00    0.00    0.00    0.00
  119    0.00    0.00    0.00    0.00    0.00    0.00   72.09    3.53    6.59    0.00    0.00    0.00    0.00    0.00    0.02     0.00    0.00    0.00    0.00    0.00
  120    0.00    0.00    0.00    0.00    0.00    0.00   68.47    3.62    7.44    0.00    0.00    0.00    0.00    0.00    0.02     0.00    0.00    0.00    0.00    0.00
    4   98.90   23.31    0.02    0.00    0.00    0.00   68.47   87.73  184.37   23.33    0.00    0.00    0.00    0.00    0.62     0.45    0.00    0.06    0.00    7.12
  121    0.00    0.00    0.00    0.00    0.00    0.00   64.72    3.75    8.98    0.00    0.00    0.00    0.00    0.00    0.02     0.00    0.00    0.00    0.00    0.00
  122    0.00    0.00    0.00    0.00    0.00    0.00   61.92    2.80    5.11    0.00    0.00    0.00    0.00    0.00    0.02     0.00    0.00    0.00    0.00    0.00
  123    0.00    0.00    0.00    0.00    0.00    0.00   59.30    2.62    5.93    0.00    0.00    0.00    0.00    0.00    0.02     0.00    0.00    0.00    0.00    0.00
  124    0.00    0.00    0.00    0.00    0.00    0.00   55.62    3.67    6.39    0.00    0.00    0.00    0.00    0.00    0.02     0.00    0.00    0.00    0.00    0.00
  125    0.00    0.00    0.00    0.00    0.00    0.00   52.04    3.58    6.74    0.00    0.00    0.00    0.00    0.00    0.02     0.00    0.00    0.00    0.00    0.00
  126    0.10    0.01    0.00    0.00    0.00    0.00   50.20    1.95    3.36    0.02    0.00    0.00    0.00    0.00    0.02     0.00    0.00    0.00    0.00    0.00
  127    0.10    0.01    0.00    0.00    0.00    0.00   48.22    2.08    4.32    0.02    0.00    0.00    0.00    0.00    0.02     0.00    0.00    0.00    0.00    0.00
  128    0.00    0.00    0.00    0.00    0.00    0.00   45.09    3.13    6.73    0.00    0.00    0.00    0.00    0.00    0.02     0.00    0.00    0.00    0.00    0.00
  129    0.00    0.00    0.00    0.00    0.00    0.00   42.39    2.70    8.87    0.00    0.00    0.00    0.00    0.00    0.02     0.00    0.00    0.00    0.00    0.00
  130    0.00    0.00    0.00    0.00    0.00    0.00   40.19    2.19    8.09    0.00    0.00    0.00    0.00    0.00    0.02     0.00    0.00    0.00    0.00    0.00
  131    0.00    0.00    0.00    0.00    0.00    0.00   38.82    1.37    5.83    0.00    0.00    0.00    0.00    0.00    0.02     0.00    0.00    0.00    0.00    0.00
  132    0.00    0.00    0.00    0.00    0.00    0.00   37.39    1.43    8.18    0.00    0.00    0.00    0.00    0.00    0.02     0.00    0.00    0.00    0.00    0.00
  133    0.00    0.00    0.00    0.00    0.00    0.00   36.51    0.88    5.57    0.00    0.00    0.00    0.00    0.00    0.02     0.00    0.00    0.00    0.00    0.00
  134    0.00    0.00    0.00    0.00    0.00    0.00   35.54    0.97    6.17    0.00    0.00    0.00    0.00    0.00    0.02     0.00    0.00    0.00    0.00    0.00
  135    0.00    0.00    0.00    0.00    0.00    0.00   34.85    0.69    5.80    0.00    0.00    0.00    0.00    0.00    0.02     0.00    0.00    0.00    0.00    0.00
  136    0.00    0.00    0.00    0.00    0.00    0.00   34.03    0.82    6.57    0.00    0.00    0.00    0.00    0.00    0.02     0.00    0.00    0.00    0.00    0.00
  137    0.00    0.00    0.00    0.00    0.00    0.00   33.19    0.84    8.67    0.00    0.00    0.00    0.00    0.00    0.02     0.00    0.00    0.00    0.00    0.00
  138    0.00    0.00    0.00    0.00    0.00    0.00   32.41    0.78    6.83    0.00    0.00    0.00    0.00    0.00    0.02     0.00    0.00    0.00    0.00    0.00
  139    0.00    0.00    0.00    0.00    0.00    0.00   31.57    0.84   10.20    0.00    0.00    0.00    0.00    0.00    0.02     0.00    0.00    0.00    0.00    0.00
  140    8.50    1.45    0.00    0.00    0.00    0.00   39.51    0.10    0.45    1.45    0.00    0.00    0.00    0.00    0.02     0.00    0.00    0.00    0.00    0.23
  141    0.00    0.00    0.00    0.00    0.00    0.00   38.12    1.39    6.67    0.00    0.00    0.00    0.00    0.00    0.02     0.00    0.00    0.00    0.00    0.00
  142    2.40    0.34    0.00    0.00    0.00    0.00   39.04    1.52    3.28    0.34    0.00    0.00    0.00    0.00    0.02     0.00    0.00    0.00    0.00    0.00
  143    0.00    0.00    0.00    0.00    0.00    0.00   37.50    1.53    6.78    0.00    0.00    0.00    0.00    0.00    0.02     0.00    0.00    0.00    0.00    0.00
  144    0.00    0.00    0.00    0.00    0.00    0.00   36.64    0.86    4.97    0.00    0.00    0.00    0.00    0.00    0.02     0.00    0.00    0.00    0.00    0.00
  145    0.00    0.00    0.00    0.00    0.00    0.00   35.48    1.16    7.87    0.00    0.00    0.00    0.00    0.00    0.02     0.00    0.00    0.00    0.00    0.00
  146    0.20    0.03    0.00    0.00    0.00    0.00   35.53    0.16    1.32    0.03    0.00    0.00    0.00    0.00    0.02     0.00    0.00    0.00    0.00    0.00
  147    0.00    0.00    0.00    0.00    0.00    0.00   34.68    0.84    5.33    0.00    0.00    0.00    0.00    0.00    0.02     0.00    0.00    0.00    0.00    0.00
  148    1.70    0.24    0.00    0.00    0.00    0.00   35.14    1.27    3.19    0.24    0.00    0.00    0.00    0.00    0.02     0.00    0.00    0.00    0.00    0.00
  149    1.10    0.16    0.00    0.00    0.00    0.00   35.10    1.13    2.73    0.16    0.00    0.00    0.00    0.00    0.02     0.00    0.00    0.00    0.00    0.00
  150    0.00    0.00    0.00    0.00    0.00    0.00   34.09    1.01    6.31    0.00    0.00    0.00    0.00    0.00    0.00     0.00    0.00    0.00    0.00    0.00
  151    0.00    0.00    0.00    0.00    0.00    0.00   33.23    0.86    7.95    0.00    0.00    0.00    0.00    0.00    0.00     0.00    0.00    0.00    0.00    0.00
    5   14.10    2.24    0.03    0.00    0.00    0.00   33.23   48.94  185.17    2.27    0.00    0.00    0.00    0.00    0.52     0.02    0.00    0.00    0.00    0.23
  152    0.00    0.00    0.00    0.00    0.00    0.00   32.44    0.79    7.42    0.00    0.00    0.00    0.00    0.00    0.00     0.00    0.00    0.00    0.00    0.00
  153    0.00    0.00    0.00    0.00    0.00    0.00   31.74    0.70    7.91    0.00    0.00    0.00    0.00    0.00    0.00     0.00    0.00    0.00    0.00    0.00
  154   36.30   15.61    0.00    0.00    0.00    0.00   51.48    2.14    2.83   15.54    0.00    0.00    0.00    0.00    0.00     0.01    0.00    0.00    0.00    4.41
  155    9.10    1.87    0.00    0.00    0.00    0.00   59.00    0.61    1.35    1.94    0.00    0.00    0.00    0.00    0.00     0.01    0.00    0.00    0.00    0.57
  156    0.40    0.06    0.00    0.00    0.00    0.00   56.52    2.88    4.02    0.06    0.00    0.00    0.00    0.00    0.00     0.01    0.00    0.00    0.00    0.00
  157    0.00    0.00    0.00    0.00    0.00    0.00   52.32    4.20    8.15    0.00    0.00    0.00    0.00    0.00    0.00     0.01    0.00    0.00    0.00    0.00
  158    0.00    0.00    0.00    0.00    0.00    0.00   48.16    4.16    8.48    0.00    0.00    0.00    0.00    0.00    0.00     0.00    0.00    0.00    0.00    0.00
  159    0.00    0.00    0.00    0.00    0.00    0.00   44.79    3.37    7.48    0.00    0.00    0.00    0.00    0.00    0.00     0.00    0.00    0.00    0.00    0.00
  160    0.00    0.00    0.00    0.00    0.00    0.00   41.72    3.08   10.90    0.00    0.00    0.00    0.00    0.00    0.00     0.00    0.00    0.00    0.00    0.00
  161    0.00    0.00    0.00    0.00    0.00    0.00   39.72    2.00    8.37    0.00    0.00    0.00    0.00    0.00    0.00     0.00    0.00    0.00    0.00    0.00
  162    0.00    0.00    0.00    0.00    0.00    0.00   37.97    1.75    8.80    0.00    0.00    0.00    0.00    0.00    0.00     0.00    0.00    0.00    0.00    0.00
  163    0.00    0.00    0.00    0.00    0.00    0.00   36.63    1.34    7.32    0.00    0.00    0.00    0.00    0.00    0.00     0.00    0.00    0.00    0.00    0.00
  164    0.00    0.00    0.00    0.00    0.00    0.00   35.53    1.10    7.26    0.00    0.00    0.00    0.00    0.00    0.00     0.00    0.00    0.00    0.00    0.00
  165    0.00    0.00    0.00    0.00    0.00    0.00   34.57    0.96    6.46    0.00    0.00    0.00    0.00    0.00    0.00     0.00    0.00    0.00    0.00    0.00
  166    0.00    0.00    0.00    0.00    0.00    0.00   33.65    0.92    7.77    0.00    0.00    0.00    0.00    0.00    0.00     0.00    0.00    0.00    0.00    0.00
  167    0.00    0.00    0.00    0.00    0.00    0.00   33.65    0.00    7.02    0.00    0.00    0.00    0.00    0.00    0.00     0.00    0.00    0.00    0.00    0.00
  168    0.00    0.00    0.00    0.00    0.00    0.00   33.65    0.00    8.87    0.00    0.00    0.00    0.00    0.00    0.00     0.00    0.00    0.00    0.00    0.00
  169    0.00    0.00    0.00    0.00    0.00    0.00   33.65    0.00    9.27    0.00    0.00    0.00    0.00    0.00    0.00     0.00    0.00    0.00    0.00    0.00
  170    0.00    0.00    0.00    0.00    0.00    0.00   33.65    0.00    5.88    0.00    0.00    0.00    0.00    0.00    0.00     0.00    0.00    0.00    0.00    0.00
  171    4.40    0.69    0.00    0.00    0.00    0.00   37.17    0.80    1.62    0.69    0.00    0.00    0.00    0.00    0.00     0.01    0.00    0.00    0.00    0.07
  172    1.30    0.19    0.00    0.00    0.00    0.00   37.44    1.04    2.69    0.19    0.00    0.00    0.00    0.00    0.00     0.01    0.00    0.00    0.00    0.00
  173    0.20    0.03    0.00    0.00    0.00    0.00   37.65    0.00    3.03    0.03    0.00    0.00    0.00    0.00    0.00     0.01    0.00    0.00    0.00    0.00
  174    2.60    0.37    0.00    0.00    0.00    0.00   40.00    0.51    1.04    0.37    0.00    0.00    0.00    0.00    0.00     0.01    0.00    0.00    0.00    0.00
  175    0.00    0.00    0.00    0.00    0.00    0.00   40.00    0.00    7.05    0.00    0.00    0.00    0.00    0.00    0.00     0.01    0.00    0.00    0.00    0.00
  176    0.00    0.00    0.00    0.00    0.00    0.00   40.00    0.00    9.43    0.00    0.00    0.00    0.00    0.00    0.00     0.01    0.00    0.00    0.00    0.00
  177    1.70    0.33    0.00    0.00    0.00    0.00   41.15    0.45    0.91    0.33    0.00    0.00    0.00    0.00    0.00     0.01    0.00    0.00    0.00    0.09
  178    0.00    0.00    0.00    0.00    0.00    0.00   41.15    0.00    8.85    0.00    0.00    0.00    0.00    0.00    0.00     0.01    0.00    0.00    0.00    0.00
  179    0.00    0.00    0.00    0.00    0.00    0.00   41.15    0.00    7.28    0.00    0.00    0.00    0.00    0.00    0.00     0.01    0.00    0.00    0.00    0.00
  180    1.10    0.16    0.00    0.00    0.00    0.00   41.97    0.27    0.54    0.16    0.00    0.00    0.00    0.00    0.00     0.01    0.00    0.00    0.00    0.00
  181    0.30    0.04    0.00    0.00    0.00    0.00   42.28    0.00    2.23    0.04    0.00    0.00    0.00    0.00    0.00     0.01    0.00    0.00    0.00    0.00
    6   57.40   19.34    0.03    0.00    0.00    0.00   42.28   33.07  180.22   19.38    0.00    0.00    0.00    0.00    0.00     0.15    0.00    0.02    0.00    5.13
  182   13.10    3.05    0.00    0.00    0.00    0.00   52.64    0.30    0.61    3.05    0.00    0.00    0.00    0.00    0.00     0.06    0.00    0.01    0.00    1.18
  183    2.00    0.28    0.00    0.00    0.00    0.00   54.13    0.49    1.00    0.29    0.00    0.00    0.00    0.00    0.00     0.05    0.00    0.01    0.00    0.00
  184    1.40    0.20    0.00    0.00    0.00    0.00   55.21    0.31    0.63    0.20    0.00    0.00    0.00    0.00    0.00     0.04    0.00    0.01    0.00    0.00
  185    0.70    0.10    0.00    0.00    0.00    0.00   54.99    0.93    1.89    0.10    0.00    0.00    0.00    0.00    0.00     0.04    0.00    0.00    0.00    0.00
  186    0.00    0.00    0.00    0.00    0.00    0.00   54.99    0.00    8.47    0.00    0.00    0.00    0.00    0.00    0.00     0.03    0.00    0.00    0.00    0.00
  187    0.00    0.00    0.00    0.00    0.00    0.00   54.99    0.00    9.50    0.00    0.00    0.00    0.00    0.00    0.00     0.03    0.00    0.00    0.00    0.00
  188    0.00    0.00    0.00    0.00    0.00    0.00   54.99    0.00    8.80    0.00    0.00    0.00    0.00    0.00    0.00     0.02    0.00    0.00    0.00    0.00
  189    0.00    0.00    0.00    0.00    0.00    0.00   54.99    0.00    7.76    0.00    0.00    0.00    0.00    0.00    0.00     0.02    0.00    0.00    0.00    0.00
  190    1.20    0.17    0.00    0.00    0.00    0.00   55.15    1.04    3.92    0.17    0.00    0.00    0.00    0.00    0.00     0.02    0.00    0.00    0.00    0.00
  191    0.40    0.06    0.00    0.00    0.00    0.00   55.55    0.00    2.13    0.06    0.00    0.00    0.00    0.00    0.00     0.01    0.00    0.00    0.00    0.00
  192    0.00    0.00    0.00    0.00    0.00    0.00   55.55    0.00    9.40    0.00    0.00    0.00    0.00    0.00    0.00     0.01    0.00    0.00    0.00    0.00
  193    2.00    0.28    0.00    0.00    0.00    0.00   57.04    0.54    1.09    0.29    0.00    0.00    0.00    0.00    0.00     0.01    0.00    0.00    0.00    0.00
  194   12.30    2.63    0.00    0.00    0.00    0.00   67.34    0.49    0.99    2.63    0.00    0.00    0.00    0.00    0.00     0.06    0.00    0.01    0.00    0.87
  195   21.20    4.80    0.00    0.00    0.00    0.00   84.73    0.36    0.73    4.80    0.00    0.00    0.00    0.00    0.00     0.14    0.00    0.02    0.00    1.78
  196    8.40    1.63    0.00    0.00    0.00    0.00   92.22    0.00    2.10    1.63    0.00    0.00    0.00    0.00    0.00     0.15    0.00    0.02    0.00    0.43
  197   16.70    5.67    0.00    0.00    0.00    0.00  102.65    1.04    2.70    5.03    0.00    0.00    0.00    0.00    0.00     0.23    0.00    0.03    0.00    1.90
  198   15.50    3.12    0.00    0.00    0.00    0.00  116.47    0.00    1.80    3.76    0.00    0.00    0.00    0.00    0.00     0.25    0.00    0.03    0.00    0.91
  199    0.00    0.00    0.00    0.00    0.00    0.00  116.47    0.00    8.10    0.00    0.00    0.00    0.00    0.00    0.00     0.21    0.00    0.03    0.00    0.00
  200    0.00    0.00    0.00    0.00    0.00    0.00  116.47    0.00    6.29    0.00    0.00    0.00    0.00    0.00    0.00     0.17    0.00    0.02    0.00    0.00
  201    0.00    0.00    0.00    0.00    0.00    0.00  116.47    0.00    6.64    0.00    0.00    0.00    0.00    0.00    0.00     0.14    0.00    0.02    0.00    0.00
  202    0.00    0.00    0.00    0.00    0.00    0.00  116.47    0.00    5.79    0.00    0.00    0.00    0.00    0.00    0.00     0.12    0.00    0.01    0.00    0.00
  203    0.00    0.00    0.00    0.00    0.00    0.00  116.47    0.00    4.60    0.00    0.00    0.00    0.00    0.00    0.00     0.10    0.00    0.01    0.00    0.00
  204    0.00    0.00    0.00    0.00    0.00    0.00  116.47    0.00    8.69    0.00    0.00    0.00    0.00    0.00    0.00     0.08    0.00    0.01    0.00    0.00
  205    0.00    0.00    0.00    0.00    0.00    0.00  116.47    0.00    6.99    0.00    0.00    0.00    0.00    0.00    0.00     0.07    0.00    0.01    0.00    0.00
  206   26.90   11.05    0.00    0.00    0.00    0.00  132.46    0.93    1.88   11.05    0.00    0.00    0.00    0.00    0.00     0.30    0.00    0.04    0.00    3.18
  207    0.00    0.00    0.00    0.00    0.00    0.00  132.46    0.00    5.85    0.00    0.00    0.00    0.00    0.00    0.00     0.25    0.00    0.03    0.00    0.00
  208    0.00    0.00    0.00    0.00    0.00    0.00  132.46    0.00    6.75    0.00    0.00    0.00    0.00    0.00    0.00     0.21    0.00    0.03    0.00    0.00
  209    0.90    0.13    0.00    0.00    0.00    0.00  133.37    0.00    2.28    0.13    0.00    0.00    0.00    0.00    0.00     0.17    0.00    0.02    0.00    0.00
  210   47.20   19.77    0.00    0.00    0.00    0.00  161.57    1.04    2.49   19.77    0.01    0.00    0.00    0.00    0.00     0.62    0.00    0.08    0.00    5.18
  211    0.00    0.00    0.00    0.00    0.00    0.00  161.57    0.00   10.99    0.00    0.00    0.00    0.00    0.00    0.00     0.51    0.00    0.06    0.00    0.00
  212    6.30    0.96    0.00    0.00    0.00    0.00  167.74    0.00    1.68    0.97    0.00    0.00    0.00    0.00    0.00     0.44    0.00    0.05    0.00    0.07
    7  176.20   53.90    0.05    0.00    0.00    0.00  167.74    7.48  142.56   53.95    0.02    0.00    0.00    0.00    0.00     4.57    0.01    0.57    0.00   15.50
  213    2.70    0.38    0.00    0.00    0.00    0.00  169.65    1.04    3.03    0.39    0.00    0.00    0.00    0.00    0.00     0.37    0.00    0.05    0.00    0.00
  214    0.00    0.00    0.00    0.00    0.00    0.00  169.65    0.00    8.91    0.00    0.00    0.00    0.00    0.00    0.00     0.31    0.00    0.04    0.00    0.00
  215    0.00    0.00    0.00    0.00    0.00    0.00  169.65    0.00    8.92    0.00    0.00    0.00    0.00    0.00    0.00     0.25    0.00    0.03    0.00    0.00
  216    0.00    0.00    0.00    0.00    0.00    0.00  169.65    0.00    6.72    0.00    0.00    0.00    0.00    0.00    0.00     0.21    0.00    0.03    0.00    0.00
  217    1.20    0.17    0.00    0.00    0.00    0.00  170.83    0.00    5.19    0.17    0.00    0.00    0.00    0.00    0.00     0.17    0.00    0.02    0.00    0.00
  218    0.00    0.00    0.00    0.00    0.00    0.00  170.83    0.00    7.24    0.00    0.00    0.00    0.00    0.00    0.00     0.14    0.00    0.02    0.00    0.00
  219    0.00    0.00    0.00    0.00    0.00    0.00  170.83    0.00    7.46    0.00    0.00    0.00    0.00    0.00    0.00     0.12    0.00    0.01    0.00    0.00
  220    0.80    0.11    0.00    0.00    0.00    0.00  170.59    1.04    3.07    0.12    0.00    0.00    0.00    0.00    0.00     0.10    0.00    0.01    0.00    0.00
  221    1.00    0.14    0.00    0.00    0.00    0.00  171.55    0.00    3.07    0.14    0.00    0.00    0.00    0.00    0.00     0.08    0.00    0.01    0.00    0.00
  222    8.60    4.16    0.00    0.00    0.00    0.00  175.44    1.04    3.02    4.06    0.00    0.00    0.00    0.00    0.00     0.16    0.00    0.02    0.00    1.00
  223    1.00    0.14    0.00    0.00    0.00    0.00  176.46    0.00    3.44    0.25    0.00    0.00    0.00    0.00    0.00     0.14    0.00    0.02    0.00    0.00
  224    0.10    0.01    0.00    0.00    0.00    0.00  176.56    0.00    2.34    0.02    0.00    0.00    0.00    0.00    0.00     0.11    0.00    0.01    0.00    0.00
  225    0.00    0.00    0.00    0.00    0.00    0.00  176.56    0.00    5.94    0.00    0.00    0.00    0.00    0.00    0.00     0.09    0.00    0.01    0.00    0.00
  226    0.00    0.00    0.00    0.00    0.00    0.00  176.56    0.00    9.15    0.00    0.00    0.00    0.00    0.00    0.00     0.08    0.00    0.01    0.00    0.00
  227    0.00    0.00    0.00    0.00    0.00    0.00  176.56    0.00   10.09    0.00    0.00    0.00    0.00    0.00    0.00     0.06    0.00    0.01    0.00    0.00
  228    0.00    0.00    0.00    0.00    0.00    0.00  176.56    0.00    9.79    0.00    0.00    0.00    0.00    0.00    0.00     0.05    0.00    0.01    0.00    0.00
  229    3.80    1.25    0.00    0.00    0.00    0.00  178.55    0.87    1.75    1.06    0.00    0.00    0.00    0.00    0.00     0.07    0.00    0.01    0.00    0.29
  230    1.10    0.16    0.00    0.00    0.00    0.00  178.63    1.04    2.82    0.35    0.00    0.00    0.00    0.00    0.00     0.06    0.00    0.01    0.00    0.00
  231    0.20    0.03    0.00    0.00    0.00    0.00  178.83    0.00    2.94    0.03    0.00    0.00    0.00    0.00    0.00     0.05    0.00    0.01    0.00    0.00
  232    0.00    0.00    0.00    0.00    0.00    0.00  178.83    0.00    5.01    0.00    0.00    0.00    0.00    0.00    0.00     0.04    0.00    0.01    0.00    0.00
  233    0.20    0.03    0.00    0.00    0.00    0.00  179.04    0.00    2.78    0.03    0.00    0.00    0.00    0.00    0.00     0.03    0.00    0.00    0.00    0.00
  234    0.00    0.00    0.00    0.00    0.00    0.00  179.04    0.00   10.28    0.00    0.00    0.00    0.00    0.00    0.00     0.03    0.00    0.00    0.00    0.00
  235    9.10    4.47    0.00    0.00    0.00    0.00  183.97    0.00    2.85    3.61    0.00    0.00    0.00    0.00    0.00     0.12    0.00    0.02    0.00    0.92
  236    0.40    0.06    0.00    0.00    0.00    0.00  184.37    0.00    1.98    0.91    0.00    0.00    0.00    0.00    0.00     0.10    0.00    0.01    0.00    0.00
  237    0.70    0.10    0.00    0.00    0.00    0.00  184.06    1.02    2.05    0.10    0.00    0.00    0.00    0.00    0.00     0.09    0.00    0.01    0.00    0.00
  238    6.40    0.91    0.00    0.00    0.00    0.00  189.34    1.04    3.06    0.91    0.00    0.00    0.00    0.00    0.00     0.09    0.00    0.01    0.00    0.00
  239   24.30    7.16    0.00    0.00    9.14    0.00  196.18    2.78    3.34    7.16    0.00    0.00    0.00    0.00    0.00     0.26    0.00    0.03    0.00    1.74
  240    0.00    0.00    0.00    0.00    1.55    0.00  191.29    3.34    6.41    0.00    0.00    0.00    0.00    0.00    0.00     0.22    0.00    0.03    0.00    0.00
  241    0.00    0.00    0.00    0.00    0.00    0.00  191.29    0.00    6.96    0.00    0.00    0.00    0.00    0.00    0.00     0.18    0.00    0.02    0.00    0.00
  242    0.00    0.00    0.00    0.00    0.00    0.00  191.29    0.00   11.99    0.00    0.00    0.00    0.00    0.00    0.00     0.15    0.00    0.02    0.00    0.00
  243    0.00    0.00    0.00    0.00    0.00    0.00  191.29    0.00    8.24    0.00    0.00    0.00    0.00    0.00    0.00     0.12    0.00    0.02    0.00    0.00
    8   61.60   19.29    0.07    0.00   10.68    0.00  191.29   13.21  169.83   19.36    0.01    0.00    0.00    0.00    0.00     4.06    0.01    0.50    0.00    3.94
  244    0.00    0.00    0.00    0.00    0.00    0.00  191.29    0.00    7.73    0.00    0.00    0.00    0.00    0.00    0.00     0.10    0.00    0.01    0.00    0.00
  245    0.00    0.00    0.00    0.00    0.00    0.00  191.29    0.00    6.34    0.00    0.00    0.00    0.00    0.00    0.00     0.08    0.00    0.01    0.00    0.00
  246    0.00    0.00    0.00    0.00    0.00    0.00  191.29    0.00    5.84    0.00    0.00    0.00    0.00    0.00    0.00     0.07    0.00    0.01    0.00    0.00
  247   12.80    1.99    0.00    0.00    5.66    0.00  196.55    0.90    0.91    2.00    0.00    0.00    0.00    0.00    0.00     0.10    0.00    0.01    0.00    0.17
  248    3.30    0.58    0.00    0.00    3.16    0.00  194.11    2.26    2.34    0.59    0.00    0.00    0.00    0.00    0.00     0.10    0.00    0.01    0.00    0.11
  249    0.00    0.00    0.00    0.00    0.10    0.00  190.92    3.09    5.92    0.00    0.00    0.00    0.00    0.00    0.00     0.08    0.00    0.01    0.00    0.00
  250    0.30    0.04    0.00    0.00    0.00    0.00  191.22    0.00    3.79    0.05    0.00    0.00    0.00    0.00    0.00     0.07    0.00    0.01    0.00    0.00
  251    0.00    0.00    0.00    0.00    0.00    0.00  191.22    0.00    6.40    0.01    0.00    0.00    0.00    0.00    0.00     0.06    0.00    0.01    0.00    0.00
  252    0.00    0.00    0.00    0.00    0.00    0.00  191.22    0.00    7.23    0.01    0.00    0.00    0.00    0.00    0.00     0.05    0.00    0.01    0.00    0.00
  253    0.50    0.07    0.00    0.00    0.00    0.00  191.73    0.00    3.59    0.08    0.00    0.00    0.00    0.00    0.00     0.04    0.00    0.00    0.00    0.00
  254   93.00   64.26    0.00    0.00   19.21    0.00  201.63    1.70    3.27   64.25    0.09    0.00    0.00    0.00    0.00     2.24    0.00    0.28    0.00   11.70
  255    0.10    0.01    0.00    0.00    4.69    0.00  194.63    2.40    2.61    0.04    0.00    0.00    0.00    0.00    0.00     1.85    0.00    0.23    0.00    0.00
  256    2.10    0.46    0.00    0.00    0.96    0.00  193.59    1.83    1.84    0.47    0.00    0.00    0.00    0.00    0.00     1.53    0.00    0.19    0.00    0.16
  257    0.00    0.00    0.00    0.00    0.00    0.00  193.59    0.00    5.10    0.01    0.00    0.00    0.00    0.00    0.00     1.26    0.00    0.16    0.00    0.00
  258    1.50    0.28    0.00    0.00    0.18    0.00  193.05    2.03    2.04    0.29    0.00    0.00    0.00    0.00    0.00     1.04    0.00    0.13    0.00    0.07
  259    0.00    0.00    0.00    0.00    0.00    0.00  193.05    0.00    6.75    0.01    0.00    0.00    0.00    0.00    0.00     0.86    0.00    0.11    0.00    0.00
  260    0.00    0.00    0.00    0.00    0.00    0.00  193.05    0.00    7.42    0.01    0.00    0.00    0.00    0.00    0.00     0.71    0.00    0.09    0.00    0.00
  261    0.80    0.11    0.00    0.00    0.00    0.00  193.87    0.00    0.95    0.12    0.00    0.00    0.00    0.00    0.00     0.59    0.00    0.07    0.00    0.00
  262    0.00    0.00    0.00    0.00    0.00    0.00  193.87    0.00    6.10    0.01    0.00    0.00    0.00    0.00    0.00     0.48    0.00    0.06    0.00    0.00
  263    6.10    0.87    0.00    0.00    3.65    0.00  194.34    2.24    2.31    0.88    0.00    0.00    0.00    0.00    0.00     0.42    0.00    0.05    0.00    0.00
  264    0.00    0.00    0.00    0.00    0.27    0.00  190.75    3.33    6.38    0.01    0.00    0.00    0.00    0.00    0.00     0.34    0.00    0.04    0.00    0.00
  265    0.00    0.00    0.00    0.00    0.00    0.00  190.75    0.00    6.89    0.01    0.00    0.00    0.00    0.00    0.00     0.28    0.00    0.03    0.00    0.00
  266    0.00    0.00    0.00    0.00    0.00    0.00  190.75    0.00    6.07    0.01    0.00    0.00    0.00    0.00    0.00     0.23    0.00    0.03    0.00    0.00
  267    0.00    0.00    0.00    0.00    0.00    0.00  190.75    0.00    6.92    0.01    0.00    0.00    0.00    0.00    0.00     0.19    0.00    0.02    0.00    0.00
  268    2.30    0.39    0.00    0.00    0.00    0.00  192.11    1.04    2.87    0.41    0.00    0.00    0.00    0.00    0.00     0.17    0.00    0.02    0.00    0.07
  269    2.50    0.36    0.00    0.00    0.00    0.00  193.60    1.04    2.42    0.37    0.00    0.00    0.00    0.00    0.00     0.14    0.00    0.02    0.00    0.00
  270    6.70    0.95    0.00    0.00    3.72    0.00  193.28    3.33    4.39    0.97    0.00    0.00    0.00    0.00    0.00     0.14    0.00    0.02    0.00    0.00
  271    0.30    0.04    0.00    0.00    0.00    0.00  193.58    0.00    3.75    0.06    0.00    0.00    0.00    0.00    0.00     0.12    0.00    0.01    0.00    0.00
  272   12.40    5.96    0.00    0.00    4.13    0.00  195.00    1.79    3.44    5.15    0.00    0.00    0.00    0.00    0.00     0.24    0.00    0.03    0.00    1.02
  273    4.60    0.85    0.00    0.00    2.90    0.00  195.11    1.14    2.19    1.68    0.00    0.00    0.00    0.00    0.00     0.23    0.00    0.03    0.00    0.19
    9  149.30   77.24    0.10    0.00   48.62    0.00  195.11   28.13  133.78   77.51    0.10    0.00    0.00    0.01    0.00    13.80    0.02    1.71    0.00   13.49
  274    0.00    0.00    0.00    0.00    0.08    0.00  191.10    3.94    7.54    0.02    0.00    0.00    0.00    0.00    0.00     0.19    0.00    0.02    0.00    0.00
  275    8.80    2.24    0.00    0.00    2.49    0.00  194.76    1.32    2.53    2.26    0.00    0.00    0.00    0.00    0.00     0.21    0.00    0.03    0.00    0.51
  276    0.80    0.11    0.00    0.00    0.40    0.00  192.93    2.24    2.30    0.13    0.00    0.00    0.00    0.00    0.00     0.17    0.00    0.02    0.00    0.00
  277   31.80    7.25    0.00    0.00   17.14    0.00  201.52    0.92    1.76    7.11    0.00    0.00    0.00    0.00    0.00     0.34    0.00    0.04    0.00    1.65
  278  129.20   96.74    0.01    0.11   28.90    0.00  205.88    1.66    3.18   70.88    0.06    0.00    0.00    0.00    0.00     3.17    0.00    0.39    0.00   16.52
  279   44.30   26.01    0.01    0.24   21.59    0.00  201.78    2.58    2.96   52.41    0.17    0.00    0.00    0.00    0.00     3.46    0.00    0.43    0.00    4.73
  280   11.40    6.67    0.01    0.37    8.57    0.00  197.91    0.81    1.55    7.07    0.01    0.00    0.00    0.00    0.00     2.99    0.00    0.37    0.00    1.27
  281    3.90    0.56    0.01    0.50    4.87    0.00  196.40    0.72    1.37    1.09    0.00    0.00    0.00    0.00    0.00     2.47    0.00    0.31    0.00    0.00
  282    0.00    0.00    0.01    0.62    0.97    0.00  192.09    3.33    6.38    0.65    0.00    0.00    0.00    0.00    0.00     2.04    0.00    0.25    0.00    0.00
  283    0.00    0.00    0.01    0.73    0.00    0.00  192.09    0.00    6.89    0.76    0.00    0.00    0.00    0.00    0.00     1.68    0.00    0.21    0.00    0.00
  284    0.00    0.00    0.01    0.83    0.00    0.00  192.09    0.00    5.88    0.86    0.00    0.00    0.00    0.00    0.00     1.38    0.00    0.17    0.00    0.00
  285    0.00    0.00    0.01    0.92    0.00    0.00  192.09    0.00    6.91    0.95    0.00    0.00    0.00    0.00    0.00     1.14    0.00    0.14    0.00    0.00
  286    1.50    0.21    0.01    1.01    0.00    0.00  192.77    0.84    1.68    1.25    0.00    0.00    0.00    0.00    0.00     0.94    0.00    0.12    0.00    0.00
  287   21.40    9.09    0.01    1.09    7.86    0.00  196.35    2.06    2.07    8.54    0.00    0.00    0.00    0.00    0.00     0.95    0.00    0.12    0.00    1.53
  288   44.60    7.71    0.01    1.21   29.29    0.00  206.75    0.96    1.84   10.63    0.01    0.00    0.00    0.00    0.00     0.96    0.00    0.12    0.00    1.14
  289   29.80    9.41    0.01    1.35   23.82    0.00  203.08    2.26    2.34   10.80    0.01    0.00    0.00    0.00    0.00     0.98    0.00    0.12    0.00    1.91
  290    0.00    0.00    0.01    1.49    6.35    0.00  194.02    2.69    5.15    1.53    0.00    0.00    0.00    0.00    0.00     0.81    0.00    0.10    0.00    0.00
  291    0.00    0.00    0.01    1.61    0.04    0.00  190.81    3.17    6.06    1.66    0.00    0.00    0.00    0.00    0.00     0.67    0.00    0.08    0.00    0.00
  292    0.00    0.00    0.01    1.73    0.00    0.00  190.81    0.00    7.07    1.77    0.00    0.00    0.00    0.00    0.00     0.55    0.00    0.07    0.00    0.00
  293    0.00    0.00    0.01    1.83    0.00    0.00  190.81    0.00    8.43    1.88    0.00    0.00    0.00    0.00    0.00     0.45    0.00    0.06    0.00    0.00
  294    0.40    0.06    0.01    1.92    0.00    0.00  191.22    0.00    1.90    2.03    0.00    0.00    0.00    0.00    0.00     0.37    0.00    0.05    0.00    0.00
  295    0.00    0.00    0.01    2.00    0.00    0.00  191.22    0.00    8.78    2.05    0.00    0.00    0.00    0.00    0.00     0.31    0.00    0.04    0.00    0.00
  296   35.80   16.72    0.01    2.09   12.21    0.00  197.05    3.25    4.23   18.81    0.02    0.00    0.00    0.00    0.00     0.62    0.00    0.08    0.00    2.80
  297   15.60    4.13    0.01    2.19   10.56    0.00  197.03    2.56    2.90    5.97    0.00    0.00    0.00    0.00    0.00     0.59    0.00    0.07    0.00    0.70
  298   37.60   22.20    0.01    2.29   12.88    0.00  197.89    2.70    3.17   24.99    0.03    0.00    0.00    0.00    0.00     0.97    0.00    0.12    0.00    4.22
  299   14.40    2.99    0.01    2.39   10.91    0.00  197.30    2.43    2.66    5.44    0.00    0.00    0.00    0.00    0.00     0.85    0.00    0.11    0.00    0.59
  300    0.00    0.00    0.01    2.49    2.33    0.00  191.85    3.12    5.96    2.56    0.00    0.00    0.00    0.00    0.00     0.70    0.00    0.09    0.00    0.00
  301    0.00    0.00    0.01    2.58    0.00    0.00  191.85    0.00    7.73    2.64    0.00    0.00    0.00    0.00    0.00     0.58    0.00    0.07    0.00    0.00
  302    0.00    0.00    0.01    2.65    0.00    0.00  191.85    0.00    6.77    2.72    0.00    0.00    0.00    0.00    0.00     0.48    0.00    0.06    0.00    0.00
  303    0.00    0.00    0.01    2.72    0.00    0.00  191.85    0.00    6.34    2.78    0.00    0.00    0.00    0.00    0.00     0.39    0.00    0.05    0.00    0.00
  304    0.00    0.00    0.01    2.78    0.00    0.00  191.85    0.00    6.64    2.84    0.00    0.00    0.00    0.00    0.00     0.32    0.00    0.04    0.00    0.00
   10  431.30  212.10    0.25   41.75  201.26    0.00  191.85   43.55  140.96  255.07    0.31    0.00    0.00    0.03    0.00    31.73    0.04    3.92    0.00   37.56
  305    0.00    0.00    0.01    2.82    0.00    0.00  191.85    0.00    6.94    2.89    0.00    0.00    0.00    0.00    0.00     0.27    0.00    0.03    0.00    0.00
  306    5.00    0.71    0.01    2.87    1.32    0.00  193.91    1.66    1.66    3.65    0.00    0.00    0.00    0.00    0.00     0.23    0.00    0.03    0.00    0.00
  307    3.10    0.44    0.01    2.90    1.43    0.00  193.07    2.56    2.90    3.41    0.00    0.00    0.00    0.00    0.00     0.20    0.00    0.02    0.00    0.00
  308    3.20    0.46    0.01    2.93    0.91    0.00  193.15    2.25    2.31    3.46    0.00    0.00    0.00    0.00    0.00     0.17    0.00    0.02    0.00    0.00
  309    1.50    0.21    0.01    2.96    0.00    0.00  193.63    1.04    2.19    3.24    0.00    0.00    0.00    0.00    0.00     0.14    0.00    0.02    0.00    0.00
  310   17.70    3.48    0.01    2.99   10.57    0.00  196.90    2.69    3.15    6.54    0.00    0.00    0.00    0.00    0.00     0.18    0.00    0.02    0.00    0.32
  311    0.90    0.13    0.01    3.02    2.15    0.00  194.85    0.81    1.55    3.22    0.00    0.00    0.00    0.00    0.00     0.15    0.00    0.02    0.00    0.00
  312   17.10    3.54    0.01    3.06   10.52    0.00  197.04    2.52    2.83    6.41    0.00    0.00    0.00    0.00    0.00     0.19    0.00    0.02    0.00    0.52
  313    4.30    0.61    0.01    3.09    4.46    0.00  195.56    1.38    2.63    4.06    0.00    0.00    0.00    0.00    0.00     0.16    0.00    0.02    0.00    0.00
  314    0.00    0.00    0.01    3.12    0.39    0.00  191.47    3.70    7.07    3.20    0.00    0.00    0.00    0.00    0.00     0.14    0.00    0.02    0.00    0.00
  315    0.00    0.00    0.01    3.14    0.00    0.00  191.47    0.00    6.09    3.22    0.00    0.00    0.00    0.00    0.00     0.11    0.00    0.01    0.00    0.00
  316    0.00    0.00    0.01    3.16    0.00    0.00  191.47    0.00    6.70    3.24    0.00    0.00    0.00    0.00    0.00     0.09    0.00    0.01    0.00    0.00
  317    0.00    0.00    0.01    3.17    0.00    0.00  191.47    0.00    5.88    3.25    0.00    0.00    0.00    0.00    0.00     0.08    0.00    0.01    0.00    0.00
  318    0.00    0.00    0.01    3.17    0.00    0.00  191.47    0.00    5.63    3.26    0.00    0.00    0.00    0.00    0.00     0.06    0.00    0.01    0.00    0.00
  319  108.40   82.58    0.01    3.20   16.67    0.00  200.02    2.21    2.24   75.84    0.11    0.00    0.00    0.00    0.00     1.97    0.00    0.24    0.00   14.27
  320    2.90    0.51    0.01    3.22    5.62    0.00  195.22    2.22    2.25   13.85    0.08    0.00    0.00    0.00    0.00     1.65    0.00    0.20    0.00    0.10
  321    0.00    0.00    0.01    3.24    0.88    0.00  190.64    3.70    7.07    3.33    0.00    0.00    0.00    0.00    0.00     1.36    0.00    0.17    0.00    0.00
  322   15.30    8.04    0.01    3.26    2.61    0.00  195.36    0.78    1.48   11.37    0.01    0.00    0.00    0.00    0.00     1.25    0.00    0.15    0.00    1.60
  323    0.00    0.00    0.01    3.27    0.25    0.00  191.65    3.46    6.61    3.38    0.00    0.00    0.00    0.00    0.00     1.03    0.00    0.13    0.00    0.00
  324    0.00    0.00    0.01    3.27    0.00    0.00  191.65    0.00    5.80    3.36    0.00    0.00    0.00    0.00    0.00     0.85    0.00    0.10    0.00    0.00
  325   41.00   21.23    0.01    3.29   12.89    0.00  199.32    1.28    2.44   23.32    0.02    0.00    0.00    0.00    0.00     1.05    0.00    0.13    0.00    4.06
  326   26.30   12.75    0.01    3.32   13.65    0.00  199.84    1.08    1.08   17.45    0.03    0.00    0.00    0.00    0.00     1.08    0.00    0.13    0.00    2.33
  327    0.20    0.03    0.01    3.35    3.77    0.00  195.16    1.10    2.11    3.49    0.00    0.00    0.00    0.00    0.00     0.89    0.00    0.11    0.00    0.00
  328    0.00    0.00    0.01    3.37    0.37    0.00  191.21    3.58    6.85    3.47    0.00    0.00    0.00    0.00    0.00     0.73    0.00    0.09    0.00    0.00
  329    0.00    0.00    0.01    3.39    0.00    0.00  191.21    0.00    7.00    3.48    0.00    0.00    0.00    0.00    0.00     0.60    0.00    0.07    0.00    0.00
  330    0.00    0.00    0.01    3.40    0.00    0.00  191.21    0.00    6.31    3.49    0.00    0.00    0.00    0.00    0.00     0.50    0.00    0.06    0.00    0.00
  331    0.00    0.00    0.01    3.40    0.00    0.00  191.21    0.00    7.52    3.50    0.00    0.00    0.00    0.00    0.00     0.41    0.00    0.05    0.00    0.00
  332    0.00    0.00    0.01    3.40    0.00    0.00  191.21    0.00    7.50    3.50    0.00    0.00    0.00    0.00    0.00     0.34    0.00    0.04    0.00    0.00
  333    0.00    0.00    0.01    3.39    0.00    0.00  191.21    0.00    6.07    3.49    0.00    0.00    0.00    0.00    0.00     0.28    0.00    0.03    0.00    0.00
  334    0.00    0.00    0.01    3.38    0.00    0.00  191.21    0.00    6.21    3.48    0.00    0.00    0.00    0.00    0.00     0.23    0.00    0.03    0.00    0.00
   11  246.90  134.73    0.31   95.57   88.44    0.00  191.21   38.01  136.09  232.86    0.26    0.00    0.00    0.01    0.00    16.35    0.02    2.02    0.00   23.19
  335   17.70    9.96    0.01    3.37    3.71    0.00  195.89    0.72    1.38   13.10    0.01    0.00    0.00    0.00    0.00     0.34    0.00    0.04    0.00    1.85
  336    0.00    0.00    0.01    3.36    0.62    0.00  192.13    3.14    6.00    3.79    0.00    0.00    0.00    0.00    0.00     0.28    0.00    0.03    0.00    0.00
  337    0.00    0.00    0.01    3.34    0.00    0.00  192.13    0.00    6.29    3.44    0.00    0.00    0.00    0.00    0.00     0.23    0.00    0.03    0.00    0.00
  338    0.00    0.00    0.01    3.32    0.00    0.00  192.13    0.00    5.42    3.42    0.00    0.00    0.00    0.00    0.00     0.19    0.00    0.02    0.00    0.00
  339    0.00    0.00    0.01    3.29    0.00    0.00  192.13    0.00    5.32    3.40    0.00    0.00    0.00    0.00    0.00     0.16    0.00    0.02    0.00    0.00
  340    0.00    0.00    0.01    3.27    0.00    0.00  192.13    0.00    4.85    3.37    0.00    0.00    0.00    0.00    0.00     0.13    0.00    0.02    0.00    0.00
  341    0.00    0.00    0.01    3.24    0.00    0.00  192.13    0.00    5.44    3.34    0.00    0.00    0.00    0.00    0.00     0.11    0.00    0.01    0.00    0.00
  342    0.00    0.00    0.01    3.20    0.00    0.00  192.13    0.00    5.97    3.31    0.00    0.00    0.00    0.00    0.00     0.09    0.00    0.01    0.00    0.00
  343    0.00    0.00    0.01    3.17    0.00    0.00  192.13    0.00    5.22    3.27    0.00    0.00    0.00    0.00    0.00     0.07    0.00    0.01    0.00    0.00
  344    0.00    0.00    0.01    3.13    0.00    0.00  192.13    0.00    6.36    3.24    0.00    0.00    0.00    0.00    0.00     0.06    0.00    0.01    0.00    0.00
  345    0.00    0.00    0.01    3.09    0.00    0.00  192.13    0.00    4.73    3.20    0.00    0.00    0.00    0.00    0.00     0.05    0.00    0.01    0.00    0.00
  346    0.00    0.00    0.01    3.05    0.00    0.00  192.13    0.00    4.93    3.16    0.00    0.00    0.00    0.00    0.00     0.04    0.00    0.00    0.00    0.00
  347    0.00    0.00    0.01    3.01    0.00    0.00  192.13    0.00    4.82    3.12    0.00    0.00    0.00    0.00    0.00     0.03    0.00    0.00    0.00    0.00
  348    0.00    0.00    0.01    2.97    0.00    0.00  192.13    0.00    5.19    3.07    0.00    0.00    0.00    0.00    0.00     0.03    0.00    0.00    0.00    0.00
  349    0.00    0.00    0.01    2.92    0.00    0.00  192.13    0.00    4.73    3.03    0.00    0.00    0.00    0.00    0.00     0.02    0.00    0.00    0.00    0.00
  350    0.00    0.00    0.01    2.88    0.00    0.00  192.13    0.00    5.41    2.98    0.00    0.00    0.00    0.00    0.00     0.02    0.00    0.00    0.00    0.00
  351    0.80    0.11    0.01    2.83    0.00    0.00  191.90    1.04    2.18    3.05    0.00    0.00    0.00    0.00    0.00     0.02    0.00    0.00    0.00    0.00
  352   29.00   12.85    0.01    2.80   10.11    0.00  197.47    1.92    1.92   15.75    0.02    0.00    0.00    0.00    0.00     0.22    0.00    0.03    0.00    2.78
  353    0.00    0.00    0.01    2.77    2.39    0.00  192.40    2.68    5.11    2.88    0.00    0.00    0.00    0.00    0.00     0.18    0.00    0.02    0.00    0.00
  354    7.10    1.17    0.01    2.74    2.82    0.00  194.43    1.80    1.80    4.02    0.00    0.00    0.00    0.00    0.00     0.16    0.00    0.02    0.00    0.16
  355   69.90   27.48    0.01    2.76   31.93    0.00  207.84    1.02    1.94   28.28    0.02    0.00    0.00    0.00    0.00     0.58    0.00    0.07    0.00    5.29
  356   43.70   18.77    0.01    2.81   27.79    0.00  205.56    1.50    1.50   20.51    0.02    0.00    0.00    0.00    0.00     0.75    0.00    0.09    0.00    3.85
  357   18.40    5.73    0.01    2.87   17.52    0.00  201.24    1.36    1.37   11.94    0.02    0.00    0.00    0.00    0.00     0.70    0.00    0.09    0.00    0.91
  358    7.40    1.05    0.01    2.94    9.54    0.00  197.43    1.71    1.72    4.11    0.00    0.00    0.00    0.00    0.00     0.59    0.00    0.07    0.00    0.00
  359    0.00    0.00    0.01    3.00    2.29    0.00  192.38    2.76    5.27    3.12    0.00    0.00    0.00    0.00    0.00     0.49    0.00    0.06    0.00    0.00
  360    0.00    0.00    0.01    3.06    0.00    0.00  192.38    0.00    5.99    3.17    0.00    0.00    0.00    0.00    0.00     0.40    0.00    0.05    0.00    0.00
  361    0.00    0.00    0.01    3.10    0.00    0.00  192.38    0.00    4.88    3.22    0.00    0.00    0.00    0.00    0.00     0.33    0.00    0.04    0.00    0.00
  362    0.00    0.00    0.01    3.14    0.00    0.00  192.38    0.00    6.58    3.26    0.00    0.00    0.00    0.00    0.00     0.27    0.00    0.03    0.00    0.00
  363    0.00    0.00    0.01    3.17    0.00    0.00  192.38    0.00    5.02    3.29    0.00    0.00    0.00    0.00    0.00     0.22    0.00    0.03    0.00    0.00
  364    0.00    0.00    0.01    3.19    0.00    0.00  192.38    0.00    5.82    3.31    0.00    0.00    0.00    0.00    0.00     0.19    0.00    0.02    0.00    0.00
  365    0.00    0.00    0.01    3.21    0.00    0.00  192.38    0.00    8.31    3.33    0.00    0.00    0.00    0.00    0.00     0.15    0.00    0.02    0.00    0.00
   12  194.00   77.12    0.31   95.00  108.72    0.00  192.38   19.64  141.43  175.47    0.09    0.00    0.00    0.02    0.00     7.09    0.01    0.87    0.00   14.83

 2001 1429.70  619.27    1.18  232.32  457.72    0.00  192.38  377.17 1935.02  859.20    0.79    0.01    0.00    0.07   20.06    78.22    0.10    9.66    0.00  120.99
1
    SWAT Sep 7    VER 2018/Rev 670                                                  

    General Input/Output section (file.cio):                                        
    02/05/2024 12:00:00 AM ARCGIS-SWAT interface AV                                 
                                                                                    
    FINAL VALUES

1
    SWAT Sep 7    VER 2018/Rev 670                                                  

    General Input/Output section (file.cio):                                        
    02/05/2024 12:00:00 AM ARCGIS-SWAT interface AV                                 
                                                                                    
                                            Average Plant Values (kg/ha)

  HRU       1 SUB   1 BERM  Yld =  2087.8 BIOM =   2965.4

    HRU STATISTICS

                AVE ANNUAL VALUES

   HRU  SUB  SOIL       AREAkm2    CN     AWCmm   USLE_LS  IRRmm  AUTONkh AUTOPkh  MIXEF PRECmm SURQGENmm   GWQmm    ETmm   SEDth  NO3kgh  ORGNkgh BIOMth   YLDth  SURQmm
      1   1   Habitati   .830E+03   86.22  195.00    0.56    0.00  350.00    0.00    0.20 1429.70  619.27  233.50  377.17    0.79    0.01   78.22    2.97    2.09  619.27



                AVE MONTHLY BASIN VALUES
                   SNOW                      WATER               SED
  MON     RAIN     FALL   SURF Q    LAT Q    YIELD       ET    YIELD      PET
          (MM)     (MM)     (MM)     (MM)     (MM)     (MM)   (T/HA)     (MM)
    1     0.00     0.00     0.00     0.00     0.00     0.00     0.00   169.80
    2     0.00     0.00     0.00     0.00     0.00     0.00     0.00   164.56
    3     0.00     0.00     0.00     0.00     0.00    57.42     0.00   186.24
    4    98.90     0.00    23.31     0.02    23.33    87.73     0.00   184.37
    5    14.10     0.00     2.24     0.03     2.27    48.94     0.00   185.17
    6    57.40     0.00    19.34     0.03    19.38    33.07     0.00   180.22
    7   176.20     0.00    53.90     0.05    53.95     7.48     0.02   142.56
    8    61.60     0.00    19.29     0.07    19.36    13.21     0.01   169.83
    9   149.30     0.00    77.24     0.10    77.51    28.13     0.10   133.78
   10   431.30     0.00   212.10     0.25   255.07    43.55     0.31   140.96
   11   246.90     0.00   134.73     0.31   232.86    38.01     0.26   136.09
   12   194.00     0.00    77.12     0.31   175.47    19.64     0.09   141.43

     AVE ANNUAL BASIN STRESS DAYS
               WATER STRESS DAYS =    13.88
               TEMPERATURE STRESS DAYS =     7.00
               NITROGEN STRESS DAYS =    69.17
               PHOSPHORUS STRESS DAYS =     0.00
               AERATION STRESS DAYS =     0.00
1
    SWAT Sep 7    VER 2018/Rev 670                                                  

    General Input/Output section (file.cio):                                        
    02/05/2024 12:00:00 AM ARCGIS-SWAT interface AV                                 
                                                                                    
         AVE ANNUAL BASIN VALUES

              PRECIP =   1429.7 MM
              SNOW FALL =    0.00 MM
              SNOW MELT =     0.00 MM
              SUBLIMATION =     0.00 MM
              SURFACE RUNOFF Q =   619.27 MM
              LATERAL SOIL Q =    1.18 MM
              TILE Q =     0.00 MM
              GROUNDWATER (SHAL AQ) Q =   232.32 MM
              GROUNDWATER (DEEP AQ) Q =     6.43 MM
              REVAP (SHAL AQ => SOIL/PLANTS) =   38.70 MM
              DEEP AQ RECHARGE =    17.21 MM
              TOTAL AQ RECHARGE =  344.16 MM
              TOTAL WATER YLD =   859.20 MM
              PERCOLATION OUT OF SOIL =  457.72 MM
              ET =    377.2 MM
              PET =   1935.0MM
              TRANSMISSION LOSSES =     0.00 MM
              SEPTIC INFLOW =       0.00 MM
              TOTAL SEDIMENT LOADING =      0.79 T/HA
              TILE FROM IMPOUNDED WATER =     0.000 (MM)
              EVAPORATION FROM IMPOUNDED WATER =     0.000 (MM)
              SEEPAGE INTO SOIL FROM IMPOUNDED WATER =    0.000 (MM)
              OVERFLOW FROM IMPOUNDED WATER =    0.000 (MM)
1
    SWAT Sep 7    VER 2018/Rev 670                                                  

    General Input/Output section (file.cio):                                        
    02/05/2024 12:00:00 AM ARCGIS-SWAT interface AV                                 
                                                                                    
              AVE ANNUAL BASIN VALUES


              NUTRIENTS
                   ORGANIC N =    78.219 (KG/HA)
                   ORGANIC P =     9.663 (KG/HA)
                   NO3 YIELD (SQ) =     0.007 (KG/HA)
                   NO3 YIELD (LAT) =    0.000 (KG/HA)
                   NO3 YIELD (TILE) =    0.000 (KG/HA)
                   SOLP YIELD (TILE) =    0.000(KG/HA)
                   SOLP YIELD (SURF INLET RISER) =    0.000 (KG/HA)
                   SOL P YIELD =    0.098 (KG/HA)
                   NO3 LEACHED =     0.071 (KG/HA)
                   P LEACHED =     0.188 (KG/HA)
                   N UPTAKE =    20.058 (KG/HA)
                   P UPTAKE =    5.659 (KG/HA)
                   NO3 YIELD (GWQ) =     0.001 (KG/HA)
                   ACTIVE TO SOLUTION P FLOW =        21.464 (KG/HA)
                   ACTIVE TO STABLE P FLOW =        78.028 (KG/HA)
                   N FERTILIZER APPLIED =   350.000 (KG/HA)
                   P FERTILIZER APPLIED =     0.000 (KG/HA)
                   N FIXATION =     0.000 (KG/HA)
                   DENITRIFICATION =   399.024 (KG/HA)
                   HUMUS MIN ON ACTIVE ORG N =    29.700 (KG/HA)
                   ACTIVE TO STABLE ORG N =    -2.408 (KG/HA)
                   HUMUS MIN ON ACTIVE ORG P =    5.092 (KG/HA)
                   MIN FROM FRESH ORG N =    3.237 (KG/HA)
                   MIN FROM FRESH ORG P =    0.913 (KG/HA)
                   NO3 IN RAINFALL =     0.000 (KG/HA)
                   INITIAL NO3 IN SOIL =      36.907 (KG/HA)
                   FINAL NO3 IN SOIL =         0.037 (KG/HA)
                   INITIAL ORG N IN SOIL =   16500.000 (KG/HA)
                   FINAL ORG N IN SOIL =     16392.790 (KG/HA)
                   INITIAL MIN P IN SOIL =    3423.068 (KG/HA)
                   FINAL MIN P IN SOIL =      3407.395 (KG/HA)
                   INITIAL ORG P IN SOIL =    2021.250 (KG/HA)
                   FINAL ORG P IN SOIL =    2006.809 (KG/HA)
                   NO3 IN FERT =   350.000 (KG/HA)
                   AMMONIA IN FERT =     0.000 (KG/HA)
                   ORG N IN FERT =     0.000 (KG/HA)
                   MINERAL P IN FERT =     0.000 (KG/HA)
                   ORG P IN FERT =     0.000 (KG/HA)
                   N REMOVED IN YIELD =    16.046 (KG/HA)
                   P REMOVED IN YIELD =     4.527 (KG/HA)
                   AMMONIA VOLATILIZATION =     0.000 (KG/HA)
                   AMMONIA NITRIFICATION =      0.000 (KG/HA)
                   NO3 EVAP-LAYER 2 TO 1 =    0.002

                   DIE-GRO P Q =           0.0 (No/M2)
                   DIE-GRO LP Q =           0.0 (No/M2)
                   DIE-GRO P SED =          0.0 (No/M2)
                   DIE-GRO LP SED =          0.0 (No/M2)
                   BACT P RUNOFF =          0.0 (No/M2)
                   BACT LP RUNOFF =          0.0 (No/M2)
                   BACT P SEDIMENT =          0.0 (No/M2)
                   BACT LP SEDIMENT =          0.0 (No/M2)
                   BACT P INCORP =          0.0 (No/M2)
                   BACT LP INCORP =          0.0 (No/M2)

                   NITRATE SEPTIC =         0.00 (kg/ha)
                   AMMONIA SEPTIC =         0.00 (kg/ha)
                   ORG N SEPTIC =         0.00 (kg/ha)
                   FRESH ORGN SEPTIC =         0.00 (kg/ha)
                   ORG P SEPTIC =         0.00 (kg/ha)
                   FRESH ORGP SEPTIC =         0.00 (kg/ha)
                   SOL P SEPTIC =         0.00 (kg/ha)
                   BOD SEPTIC =         0.00 (kg/ha)
