1
    SWAT Sep 7    VER 2018/Rev 670                                                                       0/ 0/   0      0: 0: 0

    General Input/Output section (file.cio):                                        
    02/05/2024 12:00:00 AM ARCGIS-SWAT interface AV                                 
                                                                                    
         Number of years in run:    1
         Area of watershed:      830.234 km2
1
    SWAT Sep 7    VER 2018/Rev 670                                                  

    General Input/Output section (file.cio):                                        
    02/05/2024 12:00:00 AM ARCGIS-SWAT interface AV                                 
                                                                                    
Annual Summary for Watershed in year    1 of simulation

UNIT                                    PERCO    TILE                           WATER     SED     NO3     NO3     NO3     NO3        N       P       P
TIME     PREC    SURQ    LATQ     GWQ    LATE       Q     SW       ET     PET   YIELD   YIELD    SURQ    LATQ    PERC    CROP  ORGANIC SOLUBLE ORGANIC TILENO3
         (mm)    (mm)    (mm)    (mm)    (mm)    (mm)    (mm)    (mm)    (mm)    (mm)   (t/ha)  ------------------(kg nutrient/ha)-------------------- (kg/ha)
    1    0.00    0.00    0.00    0.00    0.00    0.00  161.41    0.00    5.10    0.00    0.00    0.00    0.00    0.00    0.00     0.00    0.00    0.00    0.00    0.00
    2    0.00    0.00    0.00    0.00    0.00    0.00  161.41    0.00    7.03    0.00    0.00    0.00    0.00    0.00    0.00     0.00    0.00    0.00    0.00    0.00
    3    0.00    0.00    0.00    0.00    0.00    0.00  161.41    0.00    5.78    0.00    0.00    0.00    0.00    0.00    0.00     0.00    0.00    0.00    0.00    0.00
    4    0.00    0.00    0.00    0.00    0.00    0.00  161.41    0.00    5.32    0.00    0.00    0.00    0.00    0.00    0.00     0.00    0.00    0.00    0.00    0.00
    5    0.00    0.00    0.00    0.00    0.00    0.00  161.41    0.00    5.46    0.00    0.00    0.00    0.00    0.00    0.00     0.00    0.00    0.00    0.00    0.00
    6    0.00    0.00    0.00    0.00    0.00    0.00  161.41    0.00    5.57    0.00    0.00    0.00    0.00    0.00    0.00     0.00    0.00    0.00    0.00    0.00
    7    0.00    0.00    0.00    0.00    0.00    0.00  161.41    0.00    5.73    0.00    0.00    0.00    0.00    0.00    0.00     0.00    0.00    0.00    0.00    0.00
    8    0.00    0.00    0.00    0.00    0.00    0.00  161.41    0.00    5.54    0.00    0.00    0.00    0.00    0.00    0.00     0.00    0.00    0.00    0.00    0.00
    9    0.00    0.00    0.00    0.00    0.00    0.00  161.41    0.00    5.23    0.00    0.00    0.00    0.00    0.00    0.00     0.00    0.00    0.00    0.00    0.00
   10    0.00    0.00    0.00    0.00    0.00    0.00  161.41    0.00    6.24    0.00    0.00    0.00    0.00    0.00    0.00     0.00    0.00    0.00    0.00    0.00
   11    0.00    0.00    0.00    0.00    0.00    0.00  161.41    0.00    5.05    0.00    0.00    0.00    0.00    0.00    0.00     0.00    0.00    0.00    0.00    0.00
   12    0.00    0.00    0.00    0.00    0.00    0.00  161.41    0.00    5.21    0.00    0.00    0.00    0.00    0.00    0.00     0.00    0.00    0.00    0.00    0.00
   13    0.00    0.00    0.00    0.00    0.00    0.00  161.41    0.00    4.88    0.00    0.00    0.00    0.00    0.00    0.00     0.00    0.00    0.00    0.00    0.00
   14    0.00    0.00    0.00    0.00    0.00    0.00  161.41    0.00    5.65    0.00    0.00    0.00    0.00    0.00    0.00     0.00    0.00    0.00    0.00    0.00
   15    0.00    0.00    0.00    0.00    0.00    0.00  161.41    0.00    5.55    0.00    0.00    0.00    0.00    0.00    0.00     0.00    0.00    0.00    0.00    0.00
   16    0.00    0.00    0.00    0.00    0.00    0.00  161.41    0.00    5.96    0.00    0.00    0.00    0.00    0.00    0.00     0.00    0.00    0.00    0.00    0.00
   17    0.00    0.00    0.00    0.00    0.00    0.00  161.41    0.00    4.90    0.00    0.00    0.00    0.00    0.00    0.00     0.00    0.00    0.00    0.00    0.00
   18    0.00    0.00    0.00    0.00    0.00    0.00  161.41    0.00    5.33    0.00    0.00    0.00    0.00    0.00    0.00     0.00    0.00    0.00    0.00    0.00
   19    0.00    0.00    0.00    0.00    0.00    0.00  161.41    0.00    4.85    0.00    0.00    0.00    0.00    0.00    0.00     0.00    0.00    0.00    0.00    0.00
   20    0.00    0.00    0.00    0.00    0.00    0.00  161.41    0.00    4.74    0.00    0.00    0.00    0.00    0.00    0.00     0.00    0.00    0.00    0.00    0.00
   21    0.00    0.00    0.00    0.00    0.00    0.00  161.41    0.00    6.45    0.00    0.00    0.00    0.00    0.00    0.00     0.00    0.00    0.00    0.00    0.00
   22    0.00    0.00    0.00    0.00    0.00    0.00  161.41    0.00    6.66    0.00    0.00    0.00    0.00    0.00    0.00     0.00    0.00    0.00    0.00    0.00
   23    0.00    0.00    0.00    0.00    0.00    0.00  161.41    0.00    4.79    0.00    0.00    0.00    0.00    0.00    0.00     0.00    0.00    0.00    0.00    0.00
   24    0.00    0.00    0.00    0.00    0.00    0.00  161.41    0.00    5.14    0.00    0.00    0.00    0.00    0.00    0.00     0.00    0.00    0.00    0.00    0.00
   25    0.00    0.00    0.00    0.00    0.00    0.00  161.41    0.00    6.32    0.00    0.00    0.00    0.00    0.00    0.00     0.00    0.00    0.00    0.00    0.00
   26    0.00    0.00    0.00    0.00    0.00    0.00  161.41    0.00    5.60    0.00    0.00    0.00    0.00    0.00    0.00     0.00    0.00    0.00    0.00    0.00
   27    0.00    0.00    0.00    0.00    0.00    0.00  161.41    0.00    5.04    0.00    0.00    0.00    0.00    0.00    0.00     0.00    0.00    0.00    0.00    0.00
   28    0.00    0.00    0.00    0.00    0.00    0.00  161.41    0.00    5.10    0.00    0.00    0.00    0.00    0.00    0.00     0.00    0.00    0.00    0.00    0.00
   29    0.00    0.00    0.00    0.00    0.00    0.00  161.41    0.00    5.02    0.00    0.00    0.00    0.00    0.00    0.00     0.00    0.00    0.00    0.00    0.00
   30    0.00    0.00    0.00    0.00    0.00    0.00  161.41    0.00    5.34    0.00    0.00    0.00    0.00    0.00    0.00     0.00    0.00    0.00    0.00    0.00
   31    0.00    0.00    0.00    0.00    0.00    0.00  161.41    0.00    5.23    0.00    0.00    0.00    0.00    0.00    0.00     0.00    0.00    0.00    0.00    0.00
    1    0.00    0.00    0.00    0.00    0.00    0.00  161.41    0.00  169.80    0.00    0.00    0.00    0.00    0.00    0.00     0.00    0.00    0.00    0.00    0.00
   32    0.00    0.00    0.00    0.00    0.00    0.00  161.41    0.00    5.46    0.00    0.00    0.00    0.00    0.00    0.00     0.00    0.00    0.00    0.00    0.00
   33    0.00    0.00    0.00    0.00    0.00    0.00  161.41    0.00    6.20    0.00    0.00    0.00    0.00    0.00    0.00     0.00    0.00    0.00    0.00    0.00
   34    0.00    0.00    0.00    0.00    0.00    0.00  161.41    0.00    6.13    0.00    0.00    0.00    0.00    0.00    0.00     0.00    0.00    0.00    0.00    0.00
   35    0.00    0.00    0.00    0.00    0.00    0.00  161.41    0.00    5.17    0.00    0.00    0.00    0.00    0.00    0.00     0.00    0.00    0.00    0.00    0.00
   36    0.00    0.00    0.00    0.00    0.00    0.00  161.41    0.00    5.83    0.00    0.00    0.00    0.00    0.00    0.00     0.00    0.00    0.00    0.00    0.00
   37    0.00    0.00    0.00    0.00    0.00    0.00  161.41    0.00    5.21    0.00    0.00    0.00    0.00    0.00    0.00     0.00    0.00    0.00    0.00    0.00
   38    0.00    0.00    0.00    0.00    0.00    0.00  161.41    0.00    6.53    0.00    0.00    0.00    0.00    0.00    0.00     0.00    0.00    0.00    0.00    0.00
   39    0.00    0.00    0.00    0.00    0.00    0.00  161.41    0.00    5.60    0.00    0.00    0.00    0.00    0.00    0.00     0.00    0.00    0.00    0.00    0.00
   40    0.00    0.00    0.00    0.00    0.00    0.00  161.41    0.00    6.31    0.00    0.00    0.00    0.00    0.00    0.00     0.00    0.00    0.00    0.00    0.00
   41    0.00    0.00    0.00    0.00    0.00    0.00  161.41    0.00    5.46    0.00    0.00    0.00    0.00    0.00    0.00     0.00    0.00    0.00    0.00    0.00
   42    0.00    0.00    0.00    0.00    0.00    0.00  161.41    0.00    5.06    0.00    0.00    0.00    0.00    0.00    0.00     0.00    0.00    0.00    0.00    0.00
   43    0.00    0.00    0.00    0.00    0.00    0.00  161.41    0.00    5.72    0.00    0.00    0.00    0.00    0.00    0.00     0.00    0.00    0.00    0.00    0.00
   44    0.00    0.00    0.00    0.00    0.00    0.00  161.41    0.00    6.17    0.00    0.00    0.00    0.00    0.00    0.00     0.00    0.00    0.00    0.00    0.00
   45    0.00    0.00    0.00    0.00    0.00    0.00  161.41    0.00    6.35    0.00    0.00    0.00    0.00    0.00    0.00     0.00    0.00    0.00    0.00    0.00
   46    0.00    0.00    0.00    0.00    0.00    0.00  161.41    0.00    6.45    0.00    0.00    0.00    0.00    0.00    0.00     0.00    0.00    0.00    0.00    0.00
   47    0.00    0.00    0.00    0.00    0.00    0.00  161.41    0.00    5.48    0.00    0.00    0.00    0.00    0.00    0.00     0.00    0.00    0.00    0.00    0.00
   48    0.00    0.00    0.00    0.00    0.00    0.00  161.41    0.00    5.86    0.00    0.00    0.00    0.00    0.00    0.00     0.00    0.00    0.00    0.00    0.00
   49    0.00    0.00    0.00    0.00    0.00    0.00  161.41    0.00    5.89    0.00    0.00    0.00    0.00    0.00    0.00     0.00    0.00    0.00    0.00    0.00
   50    0.00    0.00    0.00    0.00    0.00    0.00  161.41    0.00    5.63    0.00    0.00    0.00    0.00    0.00    0.00     0.00    0.00    0.00    0.00    0.00
   51    0.00    0.00    0.00    0.00    0.00    0.00  161.41    0.00    5.55    0.00    0.00    0.00    0.00    0.00    0.00     0.00    0.00    0.00    0.00    0.00
   52    0.00    0.00    0.00    0.00    0.00    0.00  161.41    0.00    6.56    0.00    0.00    0.00    0.00    0.00    0.00     0.00    0.00    0.00    0.00    0.00
   53    0.00    0.00    0.00    0.00    0.00    0.00  161.41    0.00    6.01    0.00    0.00    0.00    0.00    0.00    0.00     0.00    0.00    0.00    0.00    0.00
   54    0.00    0.00    0.00    0.00    0.00    0.00  161.41    0.00    5.08    0.00    0.00    0.00    0.00    0.00    0.00     0.00    0.00    0.00    0.00    0.00
   55    0.00    0.00    0.00    0.00    0.00    0.00  161.41    0.00    6.52    0.00    0.00    0.00    0.00    0.00    0.00     0.00    0.00    0.00    0.00    0.00
   56    0.00    0.00    0.00    0.00    0.00    0.00  161.41    0.00    5.59    0.00    0.00    0.00    0.00    0.00    0.00     0.00    0.00    0.00    0.00    0.00
   57    0.00    0.00    0.00    0.00    0.00    0.00  161.41    0.00    6.94    0.00    0.00    0.00    0.00    0.00    0.00     0.00    0.00    0.00    0.00    0.00
   58    0.00    0.00    0.00    0.00    0.00    0.00  161.41    0.00    6.23    0.00    0.00    0.00    0.00    0.00    0.00     0.00    0.00    0.00    0.00    0.00
   59    0.00    0.00    0.00    0.00    0.00    0.00  161.41    0.00    5.58    0.00    0.00    0.00    0.00    0.00    0.00     0.00    0.00    0.00    0.00    0.00
    2    0.00    0.00    0.00    0.00    0.00    0.00  161.41    0.00  164.56    0.00    0.00    0.00    0.00    0.00    0.00     0.00    0.00    0.00    0.00    0.00
   60    0.00    0.00    0.00    0.00    0.00    0.00  161.41    0.00    5.89    0.00    0.00    0.00    0.00    0.00    0.00     0.00    0.00    0.00    0.00    0.00
   61    0.00    0.00    0.00    0.00    0.00    0.00  161.41    0.00    5.57    0.00    0.00    0.00    0.00    0.00    0.00     0.00    0.00    0.00    0.00    0.00
   62    0.00    0.00    0.00    0.00    0.00    0.00  161.29    0.12    6.46    0.00    0.00    0.00    0.00    0.00    0.00     0.00    0.00    0.00    0.00    0.00
   63    0.00    0.00    0.00    0.00    0.00    0.00  161.05    0.24    5.72    0.00    0.00    0.00    0.00    0.00    0.03     0.00    0.00    0.00    0.00    0.00
   64    0.00    0.00    0.00    0.00    0.00    0.00  160.70    0.35    6.45    0.00    0.00    0.00    0.00    0.00    0.02     0.00    0.00    0.00    0.00    0.00
   65    0.00    0.00    0.00    0.00    0.00    0.00  160.23    0.47    6.28    0.00    0.00    0.00    0.00    0.00    1.17     0.00    0.00    0.00    0.00    0.00
   66    0.00    0.00    0.00    0.00    0.00    0.00  159.62    0.61    6.26    0.00    0.00    0.00    0.00    0.00    1.36     0.00    0.00    0.00    0.00    0.00
   67    0.00    0.00    0.00    0.00    0.00    0.00  158.81    0.81    6.18    0.00    0.00    0.00    0.00    0.00    0.54     0.00    0.00    0.00    0.00    0.00
   68    0.00    0.00    0.00    0.00    0.00    0.00  156.71    2.10    5.31    0.00    0.00    0.00    0.00    0.00    3.74     0.00    0.00    0.00    0.00    0.00
   69    0.00    0.00    0.00    0.00    0.00    0.00  155.09    1.62    5.46    0.00    0.00    0.00    0.00    0.00    1.50     0.00    0.00    0.00    0.00    0.00
   70    0.00    0.00    0.00    0.00    0.00    0.00  153.76    1.32    6.12    0.00    0.00    0.00    0.00    0.00    0.89     0.00    0.00    0.00    0.00    0.00
   71    0.00    0.00    0.00    0.00    0.00    0.00  151.20    2.56    5.75    0.00    0.00    0.00    0.00    0.00    6.94     0.00    0.00    0.00    0.00    0.00
   72    0.00    0.00    0.00    0.00    0.00    0.00  149.04    2.16    5.83    0.00    0.00    0.00    0.00    0.00    1.14     0.00    0.00    0.00    0.00    0.00
   73    0.00    0.00    0.00    0.00    0.00    0.00  146.44    2.59    6.34    0.00    0.00    0.00    0.00    0.00    1.12     0.00    0.00    0.00    0.00    0.00
   74    0.00    0.00    0.00    0.00    0.00    0.00  143.96    2.49    6.84    0.00    0.00    0.00    0.00    0.00    0.10     0.00    0.00    0.00    0.00    0.00
   75    0.00    0.00    0.00    0.00    0.00    0.00  141.79    2.16    5.94    0.00    0.00    0.00    0.00    0.00    0.02     0.00    0.00    0.00    0.00    0.00
   76    0.00    0.00    0.00    0.00    0.00    0.00  139.61    2.18    7.16    0.00    0.00    0.00    0.00    0.00    0.02     0.00    0.00    0.00    0.00    0.00
   77    0.00    0.00    0.00    0.00    0.00    0.00  137.32    2.29    7.33    0.00    0.00    0.00    0.00    0.00    0.02     0.00    0.00    0.00    0.00    0.00
   78    0.00    0.00    0.00    0.00    0.00    0.00  134.73    2.60    5.89    0.00    0.00    0.00    0.00    0.00    0.02     0.00    0.00    0.00    0.00    0.00
   79    0.00    0.00    0.00    0.00    0.00    0.00  131.79    2.93    5.60    0.00    0.00    0.00    0.00    0.00    0.02     0.00    0.00    0.00    0.00    0.00
   80    0.00    0.00    0.00    0.00    0.00    0.00  129.43    2.36    5.61    0.00    0.00    0.00    0.00    0.00    0.02     0.00    0.00    0.00    0.00    0.00
   81    0.00    0.00    0.00    0.00    0.00    0.00  126.69    2.74    5.79    0.00    0.00    0.00    0.00    0.00    0.02     0.00    0.00    0.00    0.00    0.00
   82    0.00    0.00    0.00    0.00    0.00    0.00  124.37    2.32    6.18    0.00    0.00    0.00    0.00    0.00    0.02     0.00    0.00    0.00    0.00    0.00
   83    0.00    0.00    0.00    0.00    0.00    0.00  121.52    2.86    5.95    0.00    0.00    0.00    0.00    0.00    0.02     0.00    0.00    0.00    0.00    0.00
   84    0.00    0.00    0.00    0.00    0.00    0.00  118.85    2.67    5.76    0.00    0.00    0.00    0.00    0.00    0.02     0.00    0.00    0.00    0.00    0.00
   85    0.00    0.00    0.00    0.00    0.00    0.00  116.62    2.23    6.30    0.00    0.00    0.00    0.00    0.00    0.02     0.00    0.00    0.00    0.00    0.00
   86    0.00    0.00    0.00    0.00    0.00    0.00  114.40    2.23    5.43    0.00    0.00    0.00    0.00    0.00    0.02     0.00    0.00    0.00    0.00    0.00
   87    0.00    0.00    0.00    0.00    0.00    0.00  111.40    3.00    5.85    0.00    0.00    0.00    0.00    0.00    0.02     0.00    0.00    0.00    0.00    0.00
   88    0.00    0.00    0.00    0.00    0.00    0.00  108.83    2.57    5.51    0.00    0.00    0.00    0.00    0.00    0.02     0.00    0.00    0.00    0.00    0.00
   89    0.00    0.00    0.00    0.00    0.00    0.00  106.23    2.60    5.63    0.00    0.00    0.00    0.00    0.00    0.02     0.00    0.00    0.00    0.00    0.00
   90    0.00    0.00    0.00    0.00    0.00    0.00  104.03    2.20    5.83    0.00    0.00    0.00    0.00    0.00    0.02     0.00    0.00    0.00    0.00    0.00
    3    0.00    0.00    0.00    0.00    0.00    0.00  104.03   57.38  186.24    0.00    0.00    0.00    0.00    0.00   18.88     0.00    0.00    0.00    0.00    0.00
   91    0.00    0.00    0.00    0.00    0.00    0.00  101.09    2.94    5.60    0.00    0.00    0.00    0.00    0.00    0.02     0.00    0.00    0.00    0.00    0.00
   92    0.00    0.00    0.00    0.00    0.00    0.00   98.34    2.75    6.19    0.00    0.00    0.00    0.00    0.00    0.02     0.00    0.00    0.00    0.00    0.00
   93    0.00    0.00    0.00    0.00    0.00    0.00   96.10    2.24    6.08    0.00    0.00    0.00    0.00    0.00    0.02     0.00    0.00    0.00    0.00    0.00
   94    0.00    0.00    0.00    0.00    0.00    0.00   92.96    3.14    7.67    0.00    0.00    0.00    0.00    0.00    0.02     0.00    0.00    0.00    0.00    0.00
   95    0.00    0.00    0.00    0.00    0.00    0.00   90.21    2.75    6.51    0.00    0.00    0.00    0.00    0.00    0.02     0.00    0.00    0.00    0.00    0.00
   96    0.00    0.00    0.00    0.00    0.00    0.00   87.65    2.57    6.67    0.00    0.00    0.00    0.00    0.00    0.02     0.00    0.00    0.00    0.00    0.00
   97    0.00    0.00    0.00    0.00    0.00    0.00   85.21    2.44    6.69    0.00    0.00    0.00    0.00    0.00    0.02     0.00    0.00    0.00    0.00    0.00
   98    0.00    0.00    0.00    0.00    0.00    0.00   82.61    2.60    6.52    0.00    0.00    0.00    0.00    0.00    0.02     0.00    0.00    0.00    0.00    0.00
   99    0.00    0.00    0.00    0.00    0.00    0.00   80.22    2.39    4.64    0.00    0.00    0.00    0.00    0.00    0.02     0.00    0.00    0.00    0.00    0.00
  100    0.00    0.00    0.00    0.00    0.00    0.00   77.66    2.56    6.48    0.00    0.00    0.00    0.00    0.00    0.02     0.00    0.00    0.00    0.00    0.00
  101   12.60    2.63    0.00    0.00    0.00    0.00   87.36    1.41    1.96    2.63    0.00    0.00    0.00    0.00    0.02     0.01    0.00    0.00    0.00    0.84
  102   29.00    8.85    0.00    0.00    0.00    0.00  106.62    1.87    3.89    8.85    0.00    0.00    0.00    0.00    0.02     0.04    0.00    0.01    0.00    3.23
  103   44.80   13.02    0.00    0.00    0.00    0.00  136.95    2.89    3.99   12.95    0.00    0.00    0.00    0.00    0.02     0.09    0.00    0.01    0.00    3.52
  104   12.50    2.24    0.00    0.00    0.00    0.00  146.63    1.15    1.63    2.32    0.00    0.00    0.00    0.00    0.02     0.08    0.00    0.01    0.00    0.46
  105    0.00    0.00    0.00    0.00    0.00    0.00  143.49    3.14    6.44    0.00    0.00    0.00    0.00    0.00    0.02     0.06    0.00    0.01    0.00    0.00
  106    0.00    0.00    0.00    0.00    0.00    0.00  139.89    3.60    6.95    0.00    0.00    0.00    0.00    0.00    0.02     0.05    0.00    0.01    0.00    0.00
  107    0.00    0.00    0.00    0.00    0.00    0.00  136.63    3.25    6.63    0.00    0.00    0.00    0.00    0.00    0.02     0.04    0.00    0.01    0.00    0.00
  108    0.00    0.00    0.00    0.00    0.00    0.00  133.20    3.44    6.48    0.00    0.00    0.00    0.00    0.00    0.02     0.04    0.00    0.00    0.00    0.00
  109    0.00    0.00    0.00    0.00    0.00    0.00  129.85    3.34    6.84    0.00    0.00    0.00    0.00    0.00    0.02     0.03    0.00    0.00    0.00    0.00
  110    0.00    0.00    0.00    0.00    0.00    0.00  126.28    3.58    6.37    0.00    0.00    0.00    0.00    0.00    0.02     0.02    0.00    0.00    0.00    0.00
  111    0.00    0.00    0.00    0.00    0.00    0.00  122.76    3.51    6.61    0.00    0.00    0.00    0.00    0.00    0.02     0.02    0.00    0.00    0.00    0.00
  112    0.00    0.00    0.00    0.00    0.00    0.00  118.93    3.83    7.78    0.00    0.00    0.00    0.00    0.00    0.02     0.02    0.00    0.00    0.00    0.00
  113    0.00    0.00    0.00    0.00    0.00    0.00  115.76    3.16    8.29    0.00    0.00    0.00    0.00    0.00    0.02     0.01    0.00    0.00    0.00    0.00
  114    0.00    0.00    0.00    0.00    0.00    0.00  112.34    3.42    7.40    0.00    0.00    0.00    0.00    0.00    0.02     0.01    0.00    0.00    0.00    0.00
  115    0.00    0.00    0.00    0.00    0.00    0.00  108.59    3.75    8.07    0.00    0.00    0.00    0.00    0.00    0.02     0.01    0.00    0.00    0.00    0.00
  116    0.00    0.00    0.00    0.00    0.00    0.00  105.61    2.99    6.13    0.00    0.00    0.00    0.00    0.00    0.02     0.01    0.00    0.00    0.00    0.00
  117    0.00    0.00    0.00    0.00    0.00    0.00  103.40    2.21    5.06    0.00    0.00    0.00    0.00    0.00    0.02     0.01    0.00    0.00    0.00    0.00
  118    0.00    0.00    0.00    0.00    0.00    0.00   99.68    3.72    6.78    0.00    0.00    0.00    0.00    0.00    0.02     0.01    0.00    0.00    0.00    0.00
  119    0.00    0.00    0.00    0.00    0.00    0.00   96.15    3.53    6.59    0.00    0.00    0.00    0.00    0.00    0.02     0.00    0.00    0.00    0.00    0.00
  120    0.00    0.00    0.00    0.00    0.00    0.00   92.54    3.61    7.44    0.00    0.00    0.00    0.00    0.00    0.02     0.00    0.00    0.00    0.00    0.00
    4   98.90   26.76    0.00    0.00    0.00    0.00   92.54   87.77  184.37   26.76    0.00    0.00    0.00    0.00    0.60     0.56    0.01    0.07    0.00    8.06
  121    0.00    0.00    0.00    0.00    0.00    0.00   88.79    3.75    8.98    0.00    0.00    0.00    0.00    0.00    0.02     0.00    0.00    0.00    0.00    0.00
  122    0.00    0.00    0.00    0.00    0.00    0.00   85.99    2.80    5.11    0.00    0.00    0.00    0.00    0.00    0.02     0.00    0.00    0.00    0.00    0.00
  123    0.00    0.00    0.00    0.00    0.00    0.00   83.37    2.62    5.93    0.00    0.00    0.00    0.00    0.00    0.02     0.00    0.00    0.00    0.00    0.00
  124    0.00    0.00    0.00    0.00    0.00    0.00   79.70    3.67    6.39    0.00    0.00    0.00    0.00    0.00    0.02     0.00    0.00    0.00    0.00    0.00
  125    0.00    0.00    0.00    0.00    0.00    0.00   76.12    3.58    6.74    0.00    0.00    0.00    0.00    0.00    0.02     0.00    0.00    0.00    0.00    0.00
  126    0.10    0.01    0.00    0.00    0.00    0.00   74.27    1.95    3.36    0.01    0.00    0.00    0.00    0.00    0.02     0.00    0.00    0.00    0.00    0.00
  127    0.10    0.01    0.00    0.00    0.00    0.00   72.29    2.08    4.32    0.01    0.00    0.00    0.00    0.00    0.02     0.00    0.00    0.00    0.00    0.00
  128    0.00    0.00    0.00    0.00    0.00    0.00   69.04    3.25    6.73    0.00    0.00    0.00    0.00    0.00    0.02     0.00    0.00    0.00    0.00    0.00
  129    0.00    0.00    0.00    0.00    0.00    0.00   65.18    3.87    8.87    0.00    0.00    0.00    0.00    0.00    0.02     0.00    0.00    0.00    0.00    0.00
  130    0.00    0.00    0.00    0.00    0.00    0.00   61.04    4.14    8.09    0.00    0.00    0.00    0.00    0.00    0.02     0.00    0.00    0.00    0.00    0.00
  131    0.00    0.00    0.00    0.00    0.00    0.00   57.81    3.23    5.83    0.00    0.00    0.00    0.00    0.00    0.02     0.00    0.00    0.00    0.00    0.00
  132    0.00    0.00    0.00    0.00    0.00    0.00   54.50    3.31    8.18    0.00    0.00    0.00    0.00    0.00    0.02     0.00    0.00    0.00    0.00    0.00
  133    0.00    0.00    0.00    0.00    0.00    0.00   52.72    1.78    5.57    0.00    0.00    0.00    0.00    0.00    0.02     0.00    0.00    0.00    0.00    0.00
  134    0.00    0.00    0.00    0.00    0.00    0.00   50.86    1.86    6.17    0.00    0.00    0.00    0.00    0.00    0.02     0.00    0.00    0.00    0.00    0.00
  135    0.00    0.00    0.00    0.00    0.00    0.00   49.62    1.24    5.80    0.00    0.00    0.00    0.00    0.00    0.02     0.00    0.00    0.00    0.00    0.00
  136    0.00    0.00    0.00    0.00    0.00    0.00   48.18    1.44    6.57    0.00    0.00    0.00    0.00    0.00    0.02     0.00    0.00    0.00    0.00    0.00
  137    0.00    0.00    0.00    0.00    0.00    0.00   46.76    1.42    8.67    0.00    0.00    0.00    0.00    0.00    0.02     0.00    0.00    0.00    0.00    0.00
  138    0.00    0.00    0.00    0.00    0.00    0.00   45.48    1.28    6.83    0.00    0.00    0.00    0.00    0.00    0.02     0.00    0.00    0.00    0.00    0.00
  139    0.00    0.00    0.00    0.00    0.00    0.00   44.15    1.33   10.20    0.00    0.00    0.00    0.00    0.00    0.02     0.00    0.00    0.00    0.00    0.00
  140    8.50    1.70    0.00    0.00    0.00    0.00   51.44    0.13    0.45    1.70    0.00    0.00    0.00    0.00    0.02     0.00    0.00    0.00    0.00    0.49
  141    0.00    0.00    0.00    0.00    0.00    0.00   49.75    1.70    6.67    0.00    0.00    0.00    0.00    0.00    0.02     0.00    0.00    0.00    0.00    0.00
  142    2.40    0.34    0.00    0.00    0.00    0.00   50.41    1.64    3.28    0.34    0.00    0.00    0.00    0.00    0.02     0.00    0.00    0.00    0.00    0.00
  143    0.00    0.00    0.00    0.00    0.00    0.00   48.62    1.79    6.78    0.00    0.00    0.00    0.00    0.00    0.02     0.00    0.00    0.00    0.00    0.00
  144    0.00    0.00    0.00    0.00    0.00    0.00   47.49    1.13    4.97    0.00    0.00    0.00    0.00    0.00    0.02     0.00    0.00    0.00    0.00    0.00
  145    0.00    0.00    0.00    0.00    0.00    0.00   46.07    1.42    7.87    0.00    0.00    0.00    0.00    0.00    0.02     0.00    0.00    0.00    0.00    0.00
  146    0.20    0.03    0.00    0.00    0.00    0.00   46.08    0.19    1.32    0.03    0.00    0.00    0.00    0.00    0.02     0.00    0.00    0.00    0.00    0.00
  147    0.00    0.00    0.00    0.00    0.00    0.00   45.05    1.03    5.33    0.00    0.00    0.00    0.00    0.00    0.02     0.00    0.00    0.00    0.00    0.00
  148    1.70    0.24    0.00    0.00    0.00    0.00   45.35    1.34    3.19    0.24    0.00    0.00    0.00    0.00    0.02     0.00    0.00    0.00    0.00    0.00
  149    1.10    0.16    0.00    0.00    0.00    0.00   45.85    1.19    2.73    0.16    0.00    0.00    0.00    0.00    0.02     0.00    0.00    0.00    0.00    0.00
  150    0.00    0.00    0.00    0.00    0.00    0.00   44.66    1.19    6.31    0.00    0.00    0.00    0.00    0.00    0.00     0.00    0.00    0.00    0.00    0.00
  151    0.00    0.00    0.00    0.00    0.00    0.00   43.48    1.19    7.95    0.00    0.00    0.00    0.00    0.00    0.00     0.00    0.00    0.00    0.00    0.00
    5   14.10    2.50    0.01    0.00    0.00    0.00   43.48   62.53  185.17    2.51    0.00    0.00    0.00    0.00    0.51     0.02    0.00    0.00    0.00    0.49
  152    0.00    0.00    0.00    0.00    0.00    0.00   42.49    0.99    7.42    0.00    0.00    0.00    0.00    0.00    0.00     0.00    0.00    0.00    0.00    0.00
  153    0.00    0.00    0.00    0.00    0.00    0.00   41.62    0.87    7.91    0.00    0.00    0.00    0.00    0.00    0.00     0.00    0.00    0.00    0.00    0.00
  154   36.30   15.25    0.00    0.00    0.00    0.00   61.78    2.14    2.83   15.18    0.00    0.00    0.00    0.00    0.00     0.01    0.00    0.00    0.00    4.05
  155    9.10    2.34    0.00    0.00    0.00    0.00   68.27    0.98    1.35    2.41    0.00    0.00    0.00    0.00    0.00     0.01    0.00    0.00    0.00    1.04
  156    0.40    0.06    0.00    0.00    0.00    0.00   66.84    1.84    4.02    0.06    0.00    0.00    0.00    0.00    0.00     0.01    0.00    0.00    0.00    0.00
  157    0.00    0.00    0.00    0.00    0.00    0.00   62.64    4.20    8.15    0.00    0.00    0.00    0.00    0.00    0.00     0.01    0.00    0.00    0.00    0.00
  158    0.00    0.00    0.00    0.00    0.00    0.00   58.48    4.16    8.48    0.00    0.00    0.00    0.00    0.00    0.00     0.01    0.00    0.00    0.00    0.00
  159    0.00    0.00    0.00    0.00    0.00    0.00   55.48    3.00    7.48    0.00    0.00    0.00    0.00    0.00    0.00     0.00    0.00    0.00    0.00    0.00
  160    0.00    0.00    0.00    0.00    0.00    0.00   52.35    3.13   10.90    0.00    0.00    0.00    0.00    0.00    0.00     0.00    0.00    0.00    0.00    0.00
  161    0.00    0.00    0.00    0.00    0.00    0.00   50.15    2.20    8.37    0.00    0.00    0.00    0.00    0.00    0.00     0.00    0.00    0.00    0.00    0.00
  162    0.00    0.00    0.00    0.00    0.00    0.00   48.21    1.94    8.80    0.00    0.00    0.00    0.00    0.00    0.00     0.00    0.00    0.00    0.00    0.00
  163    0.00    0.00    0.00    0.00    0.00    0.00   46.70    1.51    7.32    0.00    0.00    0.00    0.00    0.00    0.00     0.00    0.00    0.00    0.00    0.00
  164    0.00    0.00    0.00    0.00    0.00    0.00   45.45    1.25    7.26    0.00    0.00    0.00    0.00    0.00    0.00     0.00    0.00    0.00    0.00    0.00
  165    0.00    0.00    0.00    0.00    0.00    0.00   44.34    1.11    6.46    0.00    0.00    0.00    0.00    0.00    0.00     0.00    0.00    0.00    0.00    0.00
  166    0.00    0.00    0.00    0.00    0.00    0.00   43.27    1.07    7.77    0.00    0.00    0.00    0.00    0.00    0.00     0.00    0.00    0.00    0.00    0.00
  167    0.00    0.00    0.00    0.00    0.00    0.00   43.27    0.00    7.02    0.00    0.00    0.00    0.00    0.00    0.00     0.00    0.00    0.00    0.00    0.00
  168    0.00    0.00    0.00    0.00    0.00    0.00   43.27    0.00    8.87    0.00    0.00    0.00    0.00    0.00    0.00     0.00    0.00    0.00    0.00    0.00
  169    0.00    0.00    0.00    0.00    0.00    0.00   43.27    0.00    9.27    0.00    0.00    0.00    0.00    0.00    0.00     0.00    0.00    0.00    0.00    0.00
  170    0.00    0.00    0.00    0.00    0.00    0.00   43.27    0.00    5.88    0.00    0.00    0.00    0.00    0.00    0.00     0.00    0.00    0.00    0.00    0.00
  171    4.40    0.88    0.00    0.00    0.00    0.00   46.40    0.80    1.62    0.88    0.00    0.00    0.00    0.00    0.00     0.01    0.00    0.00    0.00    0.26
  172    1.30    0.19    0.00    0.00    0.00    0.00   46.39    1.28    2.69    0.19    0.00    0.00    0.00    0.00    0.00     0.01    0.00    0.00    0.00    0.00
  173    0.20    0.03    0.00    0.00    0.00    0.00   46.59    0.00    3.03    0.03    0.00    0.00    0.00    0.00    0.00     0.01    0.00    0.00    0.00    0.00
  174    2.60    0.65    0.00    0.00    0.00    0.00   48.75    0.51    1.04    0.65    0.00    0.00    0.00    0.00    0.00     0.02    0.00    0.00    0.00    0.28
  175    0.00    0.00    0.00    0.00    0.00    0.00   48.75    0.00    7.05    0.00    0.00    0.00    0.00    0.00    0.00     0.01    0.00    0.00    0.00    0.00
  176    0.00    0.00    0.00    0.00    0.00    0.00   48.75    0.00    9.43    0.00    0.00    0.00    0.00    0.00    0.00     0.01    0.00    0.00    0.00    0.00
  177    1.70    0.37    0.00    0.00    0.00    0.00   50.29    0.00    0.91    0.37    0.00    0.00    0.00    0.00    0.00     0.01    0.00    0.00    0.00    0.13
  178    0.00    0.00    0.00    0.00    0.00    0.00   50.29    0.00    8.85    0.00    0.00    0.00    0.00    0.00    0.00     0.01    0.00    0.00    0.00    0.00
  179    0.00    0.00    0.00    0.00    0.00    0.00   50.29    0.00    7.28    0.00    0.00    0.00    0.00    0.00    0.00     0.01    0.00    0.00    0.00    0.00
  180    1.10    0.16    0.00    0.00    0.00    0.00   51.04    0.27    0.54    0.16    0.00    0.00    0.00    0.00    0.00     0.01    0.00    0.00    0.00    0.00
  181    0.30    0.04    0.00    0.00    0.00    0.00   51.34    0.00    2.23    0.04    0.00    0.00    0.00    0.00    0.00     0.01    0.00    0.00    0.00    0.00
    6   57.40   19.96    0.01    0.00    0.00    0.00   51.34   33.25  180.22   19.96    0.00    0.00    0.00    0.00    0.00     0.19    0.00    0.02    0.00    5.76
  182   13.10    4.25    0.00    0.00    0.00    0.00   61.13    0.00    0.61    4.25    0.00    0.00    0.00    0.00    0.00     0.08    0.00    0.01    0.00    2.38
  183    2.00    0.29    0.00    0.00    0.00    0.00   63.14    0.49    1.00    0.29    0.00    0.00    0.00    0.00    0.00     0.07    0.00    0.01    0.00    0.01
  184    1.40    0.20    0.00    0.00    0.00    0.00   64.16    0.31    0.63    0.20    0.00    0.00    0.00    0.00    0.00     0.06    0.00    0.01    0.00    0.00
  185    0.70    0.10    0.00    0.00    0.00    0.00   63.91    0.93    1.89    0.10    0.00    0.00    0.00    0.00    0.00     0.05    0.00    0.01    0.00    0.00
  186    0.00    0.00    0.00    0.00    0.00    0.00   63.91    0.00    8.47    0.00    0.00    0.00    0.00    0.00    0.00     0.04    0.00    0.01    0.00    0.00
  187    0.00    0.00    0.00    0.00    0.00    0.00   63.91    0.00    9.50    0.00    0.00    0.00    0.00    0.00    0.00     0.04    0.00    0.00    0.00    0.00
  188    0.00    0.00    0.00    0.00    0.00    0.00   63.91    0.00    8.80    0.00    0.00    0.00    0.00    0.00    0.00     0.03    0.00    0.00    0.00    0.00
  189    0.00    0.00    0.00    0.00    0.00    0.00   63.91    0.00    7.76    0.00    0.00    0.00    0.00    0.00    0.00     0.02    0.00    0.00    0.00    0.00
  190    1.20    0.17    0.00    0.00    0.00    0.00   64.38    1.28    3.92    0.17    0.00    0.00    0.00    0.00    0.00     0.02    0.00    0.00    0.00    0.00
  191    0.40    0.06    0.00    0.00    0.00    0.00   64.77    0.00    2.13    0.06    0.00    0.00    0.00    0.00    0.00     0.02    0.00    0.00    0.00    0.00
  192    0.00    0.00    0.00    0.00    0.00    0.00   64.77    0.00    9.40    0.00    0.00    0.00    0.00    0.00    0.00     0.02    0.00    0.00    0.00    0.00
  193    2.00    0.28    0.00    0.00    0.00    0.00   66.15    0.54    1.09    0.29    0.00    0.00    0.00    0.00    0.00     0.02    0.00    0.00    0.00    0.00
  194   12.30    2.85    0.00    0.00    0.00    0.00   76.48    0.00    0.99    2.85    0.00    0.00    0.00    0.00    0.00     0.07    0.00    0.01    0.00    1.09
  195   21.20    5.31    0.00    0.00    0.00    0.00   93.33    0.00    0.73    5.31    0.00    0.00    0.00    0.00    0.00     0.16    0.00    0.02    0.00    2.29
  196    8.40    2.11    0.00    0.00    0.00    0.00   99.35    1.04    2.10    2.10    0.00    0.00    0.00    0.00    0.00     0.17    0.00    0.02    0.00    0.84
  197   16.70    6.76    0.00    0.00    0.00    0.00  109.48    0.00    2.70    6.09    0.00    0.00    0.00    0.00    0.00     0.28    0.00    0.03    0.00    2.92
  198   15.50    3.43    0.00    0.00    0.00    0.00  122.74    0.00    1.80    4.10    0.00    0.00    0.00    0.00    0.00     0.30    0.00    0.04    0.00    1.18
  199    0.00    0.00    0.00    0.00    0.00    0.00  122.74    0.00    8.10    0.00    0.00    0.00    0.00    0.00    0.00     0.25    0.00    0.03    0.00    0.00
  200    0.00    0.00    0.00    0.00    0.00    0.00  122.74    0.00    6.29    0.00    0.00    0.00    0.00    0.00    0.00     0.20    0.00    0.03    0.00    0.00
  201    0.00    0.00    0.00    0.00    0.00    0.00  122.74    0.00    6.64    0.00    0.00    0.00    0.00    0.00    0.00     0.17    0.00    0.02    0.00    0.00
  202    0.00    0.00    0.00    0.00    0.00    0.00  122.74    0.00    5.79    0.00    0.00    0.00    0.00    0.00    0.00     0.14    0.00    0.02    0.00    0.00
  203    0.00    0.00    0.00    0.00    0.00    0.00  122.74    0.00    4.60    0.00    0.00    0.00    0.00    0.00    0.00     0.11    0.00    0.01    0.00    0.00
  204    0.00    0.00    0.00    0.00    0.00    0.00  122.74    0.00    8.69    0.00    0.00    0.00    0.00    0.00    0.00     0.09    0.00    0.01    0.00    0.00
  205    0.00    0.00    0.00    0.00    0.00    0.00  122.74    0.00    6.99    0.00    0.00    0.00    0.00    0.00    0.00     0.08    0.00    0.01    0.00    0.00
  206   26.90   10.04    0.00    0.00    0.00    0.00  140.51    0.00    1.88   10.04    0.00    0.00    0.00    0.00    0.00     0.29    0.00    0.04    0.00    3.06
  207    0.00    0.00    0.00    0.00    0.00    0.00  140.51    0.00    5.85    0.00    0.00    0.00    0.00    0.00    0.00     0.24    0.00    0.03    0.00    0.00
  208    0.00    0.00    0.00    0.00    0.00    0.00  140.51    0.00    6.75    0.00    0.00    0.00    0.00    0.00    0.00     0.20    0.00    0.02    0.00    0.00
  209    0.90    0.13    0.00    0.00    0.00    0.00  141.37    0.00    2.28    0.13    0.00    0.00    0.00    0.00    0.00     0.17    0.00    0.02    0.00    0.00
  210   47.20   17.75    0.00    0.00    0.00    0.00  171.93    0.00    2.49   17.75    0.01    0.00    0.00    0.00    0.00     0.57    0.00    0.07    0.00    5.81
  211    0.00    0.00    0.00    0.00    0.00    0.00  171.93    0.00   10.99    0.00    0.00    0.00    0.00    0.00    0.00     0.47    0.00    0.06    0.00    0.00
  212    6.30    1.15    0.00    0.00    0.00    0.00  176.84    0.83    1.68    1.16    0.00    0.00    0.00    0.00    0.00     0.41    0.00    0.05    0.00    0.26
    7  176.20   54.88    0.01    0.00    0.00    0.00  176.84    5.43  142.56   54.89    0.01    0.00    0.00    0.00    0.00     4.86    0.01    0.60    0.00   19.85
  213    2.70    0.40    0.00    0.00    0.00    0.00  178.75    1.28    3.03    0.40    0.00    0.00    0.00    0.00    0.00     0.35    0.00    0.04    0.00    0.02
  214    0.00    0.00    0.00    0.00    0.00    0.00  178.75    0.00    8.91    0.00    0.00    0.00    0.00    0.00    0.00     0.29    0.00    0.04    0.00    0.00
  215    0.00    0.00    0.00    0.00    0.00    0.00  178.75    0.00    8.92    0.00    0.00    0.00    0.00    0.00    0.00     0.24    0.00    0.03    0.00    0.00
  216    0.00    0.00    0.00    0.00    0.00    0.00  178.75    0.00    6.72    0.00    0.00    0.00    0.00    0.00    0.00     0.19    0.00    0.02    0.00    0.00
  217    1.20    0.20    0.00    0.00    0.00    0.00  180.24    0.00    5.19    0.20    0.00    0.00    0.00    0.00    0.00     0.16    0.00    0.02    0.00    0.03
  218    0.00    0.00    0.00    0.00    0.00    0.00  180.24    0.00    7.24    0.00    0.00    0.00    0.00    0.00    0.00     0.13    0.00    0.02    0.00    0.00
  219    0.00    0.00    0.00    0.00    0.00    0.00  180.24    0.00    7.46    0.00    0.00    0.00    0.00    0.00    0.00     0.11    0.00    0.01    0.00    0.00
  220    0.80    0.11    0.00    0.00    0.00    0.00  179.70    1.28    3.07    0.11    0.00    0.00    0.00    0.00    0.00     0.09    0.00    0.01    0.00    0.00
  221    1.00    0.24    0.00    0.00    0.00    0.00  181.14    0.00    3.07    0.24    0.00    0.00    0.00    0.00    0.00     0.08    0.00    0.01    0.00    0.10
  222    8.60    2.86    0.00    0.00    0.00    0.00  186.09    1.28    3.02    2.83    0.00    0.00    0.00    0.00    0.00     0.13    0.00    0.02    0.00    0.96
  223    1.00    0.14    0.00    0.00    0.00    0.00  187.05    0.00    3.44    0.18    0.00    0.00    0.00    0.00    0.00     0.11    0.00    0.01    0.00    0.00
  224    0.10    0.01    0.00    0.00    0.00    0.00  187.15    0.00    2.34    0.01    0.00    0.00    0.00    0.00    0.00     0.09    0.00    0.01    0.00    0.00
  225    0.00    0.00    0.00    0.00    0.00    0.00  187.15    0.00    5.94    0.00    0.00    0.00    0.00    0.00    0.00     0.07    0.00    0.01    0.00    0.00
  226    0.00    0.00    0.00    0.00    0.00    0.00  187.15    0.00    9.15    0.00    0.00    0.00    0.00    0.00    0.00     0.06    0.00    0.01    0.00    0.00
  227    0.00    0.00    0.00    0.00    0.00    0.00  187.15    0.00   10.09    0.00    0.00    0.00    0.00    0.00    0.00     0.05    0.00    0.01    0.00    0.00
  228    0.00    0.00    0.00    0.00    0.00    0.00  187.15    0.00    9.79    0.00    0.00    0.00    0.00    0.00    0.00     0.04    0.00    0.01    0.00    0.00
  229    3.80    1.30    0.00    0.00    0.00    0.00  188.99    0.87    1.75    0.95    0.00    0.00    0.00    0.00    0.00     0.06    0.00    0.01    0.00    0.00
  230    1.10    0.16    0.00    0.00    0.00    0.00  188.75    1.28    2.82    0.51    0.00    0.00    0.00    0.00    0.00     0.05    0.00    0.01    0.00    0.00
  231    0.20    0.03    0.00    0.00    0.00    0.00  188.96    0.00    2.94    0.03    0.00    0.00    0.00    0.00    0.00     0.04    0.00    0.01    0.00    0.00
  232    0.00    0.00    0.00    0.00    0.00    0.00  188.96    0.00    5.01    0.00    0.00    0.00    0.00    0.00    0.00     0.04    0.00    0.00    0.00    0.00
  233    0.20    0.03    0.00    0.00    0.00    0.00  189.16    0.00    2.78    0.03    0.00    0.00    0.00    0.00    0.00     0.03    0.00    0.00    0.00    0.00
  234    0.00    0.00    0.00    0.00    0.00    0.00  189.16    0.00   10.28    0.00    0.00    0.00    0.00    0.00    0.00     0.03    0.00    0.00    0.00    0.00
  235    9.10    5.59    0.00    0.00    0.00    0.00  191.60    1.28    2.85    4.61    0.00    0.00    0.00    0.00    0.00     0.15    0.00    0.02    0.00    1.70
  236    0.40    0.06    0.00    0.00    0.00    0.00  192.01    0.00    1.98    1.04    0.00    0.00    0.00    0.00    0.00     0.13    0.00    0.02    0.00    0.00
  237    0.70    0.10    0.00    0.00    0.00    0.00  192.70    0.00    2.05    0.10    0.00    0.00    0.00    0.00    0.00     0.11    0.00    0.01    0.00    0.00
  238    6.40    1.11    0.00    0.00    0.00    0.00  197.72    1.28    3.06    1.11    0.00    0.00    0.00    0.00    0.00     0.11    0.00    0.01    0.00    0.20
  239   24.30    6.19    0.00    0.00    0.00    0.00  215.61    1.28    3.34    6.19    0.00    0.00    0.00    0.00    0.00     0.26    0.00    0.03    0.00    2.38
  240    0.00    0.00    0.00    0.00    0.00    0.00  215.61    0.00    6.41    0.00    0.00    0.00    0.00    0.00    0.00     0.21    0.00    0.03    0.00    0.00
  241    0.00    0.00    0.00    0.00    0.00    0.00  215.61    0.00    6.96    0.00    0.00    0.00    0.00    0.00    0.00     0.18    0.00    0.02    0.00    0.00
  242    0.00    0.00    0.00    0.00    0.00    0.00  215.61    0.00   11.99    0.00    0.00    0.00    0.00    0.00    0.00     0.14    0.00    0.02    0.00    0.00
  243    0.00    0.00    0.00    0.00    0.00    0.00  215.61    0.00    8.24    0.00    0.00    0.00    0.00    0.00    0.00     0.12    0.00    0.01    0.00    0.00
    8   61.60   18.54    0.02    0.00    0.00    0.00  215.61    9.83  169.83   18.56    0.01    0.00    0.00    0.00    0.00     3.87    0.01    0.48    0.00    5.39
  244    0.00    0.00    0.00    0.00    0.00    0.00  215.61    0.00    7.73    0.00    0.00    0.00    0.00    0.00    0.00     0.10    0.00    0.01    0.00    0.00
  245    0.00    0.00    0.00    0.00    0.00    0.00  215.61    0.00    6.34    0.00    0.00    0.00    0.00    0.00    0.00     0.08    0.00    0.01    0.00    0.00
  246    0.00    0.00    0.00    0.00    0.00    0.00  215.61    0.00    5.84    0.00    0.00    0.00    0.00    0.00    0.00     0.07    0.00    0.01    0.00    0.00
  247   12.80    2.77    0.00    0.00    0.00    0.00  225.57    0.45    0.91    2.77    0.00    0.00    0.00    0.00    0.00     0.13    0.00    0.02    0.00    0.90
  248    3.30    0.89    0.00    0.00    0.00    0.00  227.57    1.16    2.34    0.90    0.00    0.00    0.00    0.00    0.00     0.12    0.00    0.02    0.00    0.24
  249    0.00    0.00    0.00    0.00    0.00    0.00  227.57    0.00    5.92    0.00    0.00    0.00    0.00    0.00    0.00     0.10    0.00    0.01    0.00    0.00
  250    0.30    0.04    0.00    0.00    0.00    0.00  227.86    0.00    3.79    0.04    0.00    0.00    0.00    0.00    0.00     0.09    0.00    0.01    0.00    0.00
  251    0.00    0.00    0.00    0.00    0.00    0.00  227.86    0.00    6.40    0.00    0.00    0.00    0.00    0.00    0.00     0.07    0.00    0.01    0.00    0.00
  252    0.00    0.00    0.00    0.00    0.00    0.00  227.86    0.00    7.23    0.00    0.00    0.00    0.00    0.00    0.00     0.06    0.00    0.01    0.00    0.00
  253    0.50    0.07    0.00    0.00    0.00    0.00  228.36    0.00    3.59    0.07    0.00    0.00    0.00    0.00    0.00     0.05    0.00    0.01    0.00    0.00
  254   93.00   70.26    0.00    0.00    5.52    0.00  245.07    1.70    3.27   70.24    0.11    0.00    0.00    0.00    0.00     2.53    0.00    0.31    0.00   12.81
  255    0.10    0.01    0.00    0.00    2.32    0.00  240.26    2.59    2.61    0.04    0.00    0.00    0.00    0.00    0.00     2.09    0.00    0.26    0.00    0.00
  256    2.10    0.97    0.00    0.00    0.90    0.00  239.99    0.96    1.84    0.96    0.00    0.00    0.00    0.00    0.00     1.74    0.00    0.22    0.00    0.14
  257    0.00    0.00    0.00    0.00    0.07    0.00  237.27    2.66    5.10    0.02    0.00    0.00    0.00    0.00    0.00     1.43    0.00    0.18    0.00    0.00
  258    1.50    0.31    0.00    0.00    0.00    0.00  238.02    1.01    2.04    0.31    0.00    0.00    0.00    0.00    0.00     1.19    0.00    0.15    0.00    0.00
  259    0.00    0.00    0.00    0.00    0.00    0.00  238.02    0.00    6.75    0.00    0.00    0.00    0.00    0.00    0.00     0.98    0.00    0.12    0.00    0.00
  260    0.00    0.00    0.00    0.00    0.00    0.00  238.02    0.00    7.42    0.00    0.00    0.00    0.00    0.00    0.00     0.81    0.00    0.10    0.00    0.00
  261    0.80    0.11    0.00    0.00    0.00    0.00  238.82    0.00    0.95    0.12    0.00    0.00    0.00    0.00    0.00     0.67    0.00    0.08    0.00    0.00
  262    0.00    0.00    0.00    0.00    0.00    0.00  238.82    0.00    6.10    0.00    0.00    0.00    0.00    0.00    0.00     0.55    0.00    0.07    0.00    0.00
  263    6.10    1.00    0.00    0.00    2.21    0.00  240.42    2.29    2.31    1.00    0.00    0.00    0.00    0.00    0.00     0.47    0.00    0.06    0.00    0.13
  264    0.00    0.00    0.00    0.00    0.70    0.00  236.39    3.33    6.38    0.00    0.00    0.00    0.00    0.00    0.00     0.39    0.00    0.05    0.00    0.00
  265    0.00    0.00    0.00    0.00    0.00    0.00  236.39    0.00    6.89    0.00    0.00    0.00    0.00    0.00    0.00     0.32    0.00    0.04    0.00    0.00
  266    0.00    0.00    0.00    0.00    0.00    0.00  236.39    0.00    6.07    0.00    0.00    0.00    0.00    0.00    0.00     0.26    0.00    0.03    0.00    0.00
  267    0.00    0.00    0.00    0.00    0.00    0.00  236.39    0.00    6.92    0.00    0.00    0.00    0.00    0.00    0.00     0.22    0.00    0.03    0.00    0.00
  268    2.30    0.58    0.00    0.00    0.00    0.00  237.34    1.28    2.87    0.59    0.00    0.00    0.00    0.00    0.00     0.19    0.00    0.02    0.00    0.26
  269    2.50    0.36    0.00    0.00    0.00    0.00  238.63    1.20    2.42    0.36    0.00    0.00    0.00    0.00    0.00     0.17    0.00    0.02    0.00    0.00
  270    6.70    0.95    0.00    0.00    2.41    0.00  239.39    3.57    4.39    0.96    0.00    0.00    0.00    0.00    0.00     0.16    0.00    0.02    0.00    0.00
  271    0.30    0.04    0.00    0.00    0.32    0.00  237.41    1.96    3.75    0.05    0.00    0.00    0.00    0.00    0.00     0.13    0.00    0.02    0.00    0.00
  272   12.40    7.42    0.00    0.00    1.43    0.00  239.96    1.79    3.44    6.27    0.00    0.00    0.00    0.00    0.00     0.29    0.00    0.04    0.00    1.41
  273    4.60    1.38    0.00    0.00    1.83    0.00  240.07    2.18    2.19    2.53    0.01    0.00    0.00    0.00    0.00     0.28    0.00    0.03    0.00    0.24
    9  149.30   87.19    0.02    0.00   17.71    0.00  240.07   28.14  133.78   87.23    0.12    0.00    0.00    0.00    0.00    15.72    0.02    1.95    0.00   16.13
  274    0.00    0.00    0.00    0.00    0.52    0.00  235.61    3.94    7.54    0.00    0.00    0.00    0.00    0.00    0.00     0.23    0.00    0.03    0.00    0.00
  275    8.80    2.99    0.00    0.00    1.02    0.00  238.74    2.52    2.53    2.99    0.00    0.00    0.00    0.00    0.00     0.27    0.00    0.03    0.00    0.51
  276    0.80    0.11    0.00    0.00    0.04    0.00  238.28    1.20    2.30    0.12    0.00    0.00    0.00    0.00    0.00     0.22    0.00    0.03    0.00    0.00
  277   31.80   12.12    0.00    0.00    8.44    0.00  248.61    1.75    1.76   11.50    0.01    0.00    0.00    0.00    0.00     0.52    0.00    0.06    0.00    2.68
  278  129.20  106.79    0.00    0.00   14.58    0.00  254.94    2.94    3.18   78.72    0.08    0.00    0.00    0.00    0.00     3.58    0.00    0.44    0.00   17.60
  279   44.30   31.73    0.00    0.00   12.85    0.00  254.22    1.54    2.96   60.43    0.22    0.00    0.00    0.00    0.00     3.92    0.00    0.48    0.00    5.43
  280   11.40    8.25    0.00    0.00    8.18    0.00  249.23    0.81    1.55    8.25    0.01    0.00    0.00    0.00    0.00     3.38    0.00    0.42    0.00    1.34
  281    3.90    0.63    0.00    0.00    5.95    0.00  245.93    1.37    1.37    0.65    0.00    0.00    0.00    0.00    0.00     2.80    0.00    0.35    0.00    0.08
  282    0.00    0.00    0.00    0.00    2.97    0.00  239.63    3.33    6.38    0.01    0.00    0.00    0.00    0.00    0.00     2.30    0.00    0.28    0.00    0.00
  283    0.00    0.00    0.00    0.00    0.14    0.00  235.89    3.60    6.89    0.01    0.00    0.00    0.00    0.00    0.00     1.90    0.00    0.23    0.00    0.00
  284    0.00    0.00    0.00    0.00    0.00    0.00  235.89    0.00    5.88    0.01    0.00    0.00    0.00    0.00    0.00     1.56    0.00    0.19    0.00    0.00
  285    0.00    0.00    0.00    0.00    0.00    0.00  235.89    0.00    6.91    0.01    0.00    0.00    0.00    0.00    0.00     1.29    0.00    0.16    0.00    0.00
  286    1.50    0.21    0.00    0.00    0.00    0.00  236.56    0.84    1.68    0.23    0.00    0.00    0.00    0.00    0.00     1.06    0.00    0.13    0.00    0.00
  287   21.40   11.31    0.00    0.00    3.21    0.00  241.88    2.06    2.07    9.02    0.00    0.00    0.00    0.00    0.00     1.08    0.00    0.13    0.00    2.12
  288   44.60   12.97    0.00    0.00   15.76    0.00  257.50    1.83    1.84   15.27    0.02    0.00    0.00    0.00    0.00     1.16    0.00    0.14    0.00    3.07
  289   29.80   14.38    0.00    0.00   15.30    0.00  257.55    1.22    2.34   14.41    0.02    0.00    0.00    0.00    0.00     1.23    0.00    0.15    0.00    2.86
  290    0.00    0.00    0.00    0.00    7.88    0.00  246.97    2.69    5.15    0.02    0.00    0.00    0.00    0.00    0.00     1.01    0.00    0.12    0.00    0.00
  291    0.00    0.00    0.00    0.12    3.13    0.00  240.67    3.17    6.06    0.14    0.00    0.00    0.00    0.00    0.00     0.83    0.00    0.10    0.00    0.00
  292    0.00    0.00    0.00    0.23    0.30    0.00  236.67    3.70    7.07    0.25    0.00    0.00    0.00    0.00    0.00     0.69    0.00    0.08    0.00    0.00
  293    0.00    0.00    0.00    0.34    0.00    0.00  236.67    0.00    8.43    0.36    0.00    0.00    0.00    0.00    0.00     0.57    0.00    0.07    0.00    0.00
  294    0.40    0.06    0.00    0.43    0.00    0.00  236.11    0.94    1.90    0.51    0.00    0.00    0.00    0.00    0.00     0.47    0.00    0.06    0.00    0.00
  295    0.00    0.00    0.00    0.52    0.00    0.00  236.11    0.00    8.78    0.54    0.00    0.00    0.00    0.00    0.00     0.38    0.00    0.05    0.00    0.00
  296   35.80   19.62    0.00    0.61    6.10    0.00  245.28    2.21    4.23   20.18    0.03    0.00    0.00    0.00    0.00     0.70    0.00    0.09    0.00    3.37
  297   15.60    5.53    0.00    0.70    7.52    0.00  246.43    2.80    2.90    5.16    0.00    0.00    0.00    0.00    0.00     0.66    0.00    0.08    0.00    0.60
  298   37.60   27.50    0.00    0.80    7.85    0.00  247.98    1.66    3.17   29.49    0.05    0.00    0.00    0.00    0.00     1.08    0.00    0.13    0.00    4.84
  299   14.40    5.29    0.00    0.89    8.05    0.00  247.23    2.65    2.66    6.16    0.00    0.00    0.00    0.00    0.00     0.97    0.00    0.12    0.00    1.04
  300    0.00    0.00    0.00    0.99    3.82    0.00  240.29    3.12    5.96    1.06    0.00    0.00    0.00    0.00    0.00     0.80    0.00    0.10    0.00    0.00
  301    0.00    0.00    0.00    1.07    0.70    0.00  235.54    4.04    7.73    1.10    0.00    0.00    0.00    0.00    0.00     0.66    0.00    0.08    0.00    0.00
  302    0.00    0.00    0.00    1.15    0.00    0.00  235.54    0.00    6.77    1.18    0.00    0.00    0.00    0.00    0.00     0.54    0.00    0.07    0.00    0.00
  303    0.00    0.00    0.00    1.22    0.00    0.00  235.54    0.00    6.34    1.25    0.00    0.00    0.00    0.00    0.00     0.45    0.00    0.06    0.00    0.00
  304    0.00    0.00    0.00    1.28    0.00    0.00  235.54    0.00    6.64    1.32    0.00    0.00    0.00    0.00    0.00     0.37    0.00    0.05    0.00    0.00
   10  431.30  259.49    0.05   10.36  134.31    0.00  235.54   55.91  140.96  270.35    0.44    0.00    0.00    0.02    0.00    36.67    0.04    4.53    0.00   45.52
  305    0.00    0.00    0.00    1.34    0.00    0.00  235.54    0.00    6.94    1.37    0.00    0.00    0.00    0.00    0.00     0.30    0.00    0.04    0.00    0.00
  306    5.00    0.71    0.00    1.39    0.37    0.00  239.59    0.87    1.66    2.14    0.00    0.00    0.00    0.00    0.00     0.26    0.00    0.03    0.00    0.00
  307    3.10    0.44    0.00    1.44    1.20    0.00  239.95    1.52    2.90    1.91    0.00    0.00    0.00    0.00    0.00     0.22    0.00    0.03    0.00    0.00
  308    3.20    0.46    0.00    1.48    1.36    0.00  239.38    2.30    2.31    1.97    0.00    0.00    0.00    0.00    0.00     0.19    0.00    0.02    0.00    0.00
  309    1.50    0.21    0.00    1.52    0.40    0.00  238.32    2.18    2.19    1.77    0.00    0.00    0.00    0.00    0.00     0.16    0.00    0.02    0.00    0.00
  310   17.70    4.32    0.00    1.56    5.92    0.00  244.33    2.93    3.15    5.91    0.00    0.00    0.00    0.00    0.00     0.20    0.00    0.02    0.00    0.61
  311    0.90    0.13    0.00    1.60    2.58    0.00  241.84    0.81    1.55    1.76    0.00    0.00    0.00    0.00    0.00     0.16    0.00    0.02    0.00    0.00
  312   17.10    4.99    0.00    1.64    6.70    0.00  246.74    1.48    2.83    5.81    0.00    0.00    0.00    0.00    0.00     0.21    0.00    0.03    0.00    0.82
  313    4.30    0.61    0.00    1.68    5.15    0.00  243.69    2.62    2.63    3.20    0.00    0.00    0.00    0.00    0.00     0.18    0.00    0.02    0.00    0.00
  314    0.00    0.00    0.00    1.72    2.23    0.00  237.76    3.70    7.07    1.77    0.00    0.00    0.00    0.00    0.00     0.15    0.00    0.02    0.00    0.00
  315    0.00    0.00    0.00    1.76    0.00    0.00  237.76    0.00    6.09    1.80    0.00    0.00    0.00    0.00    0.00     0.12    0.00    0.02    0.00    0.00
  316    0.00    0.00    0.00    1.79    0.00    0.00  237.76    0.00    6.70    1.83    0.00    0.00    0.00    0.00    0.00     0.10    0.00    0.01    0.00    0.00
  317    0.00    0.00    0.00    1.82    0.00    0.00  237.76    0.00    5.88    1.86    0.00    0.00    0.00    0.00    0.00     0.08    0.00    0.01    0.00    0.00
  318    0.00    0.00    0.00    1.84    0.00    0.00  237.76    0.00    5.63    1.88    0.00    0.00    0.00    0.00    0.00     0.07    0.00    0.01    0.00    0.00
  319  108.40   91.20    0.00    1.86    6.99    0.00  247.40    1.17    2.24   81.02    0.14    0.00    0.00    0.00    0.00     1.84    0.00    0.23    0.00   15.32
  320    2.90    0.89    0.00    1.89    4.56    0.00  244.41    1.18    2.25   14.92    0.10    0.00    0.00    0.00    0.00     1.54    0.00    0.19    0.00    0.19
  321    0.00    0.00    0.00    1.92    1.98    0.00  238.73    3.70    7.07    1.97    0.00    0.00    0.00    0.00    0.00     1.27    0.00    0.16    0.00    0.00
  322   15.30   10.93    0.00    1.94    1.77    0.00  240.69    1.48    1.48   12.89    0.02    0.00    0.00    0.00    0.00     1.19    0.00    0.15    0.00    2.74
  323    0.00    0.00    0.00    1.96    0.64    0.00  236.59    3.46    6.61    2.04    0.00    0.00    0.00    0.00    0.00     0.98    0.00    0.12    0.00    0.00
  324    0.00    0.00    0.00    1.98    0.00    0.00  236.59    0.00    5.80    2.03    0.00    0.00    0.00    0.00    0.00     0.81    0.00    0.10    0.00    0.00
  325   41.00   24.29    0.00    2.00    6.60    0.00  245.67    2.43    2.44   24.54    0.03    0.00    0.00    0.00    0.00     0.99    0.00    0.12    0.00    2.92
  326   26.30   15.78    0.00    2.02    7.81    0.00  248.51    1.08    1.08   19.63    0.04    0.00    0.00    0.00    0.00     1.02    0.00    0.13    0.00    2.54
  327    0.20    0.03    0.00    2.05    4.07    0.00  243.53    1.10    2.11    2.15    0.00    0.00    0.00    0.00    0.00     0.84    0.00    0.10    0.00    0.00
  328    0.00    0.00    0.00    2.08    1.75    0.00  238.19    3.58    6.85    2.13    0.00    0.00    0.00    0.00    0.00     0.69    0.00    0.09    0.00    0.00
  329    0.00    0.00    0.00    2.10    0.00    0.00  238.19    0.00    7.00    2.15    0.00    0.00    0.00    0.00    0.00     0.57    0.00    0.07    0.00    0.00
  330    0.00    0.00    0.00    2.11    0.00    0.00  238.19    0.00    6.31    2.17    0.00    0.00    0.00    0.00    0.00     0.47    0.00    0.06    0.00    0.00
  331    0.00    0.00    0.00    2.12    0.00    0.00  238.19    0.00    7.52    2.18    0.00    0.00    0.00    0.00    0.00     0.39    0.00    0.05    0.00    0.00
  332    0.00    0.00    0.00    2.13    0.00    0.00  238.19    0.00    7.50    2.19    0.00    0.00    0.00    0.00    0.00     0.32    0.00    0.04    0.00    0.00
  333    0.00    0.00    0.00    2.13    0.00    0.00  238.19    0.00    6.07    2.19    0.00    0.00    0.00    0.00    0.00     0.26    0.00    0.03    0.00    0.00
  334    0.00    0.00    0.00    2.13    0.00    0.00  238.19    0.00    6.21    2.19    0.00    0.00    0.00    0.00    0.00     0.22    0.00    0.03    0.00    0.00
   11  246.90  154.99    0.07   54.97   62.08    0.00  238.19   37.59  136.09  211.36    0.34    0.00    0.00    0.01    0.00    15.77    0.02    1.95    0.00   25.14
  335   17.70   10.93    0.00    2.13    2.85    0.00  242.78    0.72    1.38   12.40    0.02    0.00    0.00    0.00    0.00     0.30    0.00    0.04    0.00    0.89
  336    0.00    0.00    0.00    2.13    1.25    0.00  238.39    3.14    6.00    2.92    0.00    0.00    0.00    0.00    0.00     0.25    0.00    0.03    0.00    0.00
  337    0.00    0.00    0.00    2.13    0.00    0.00  238.39    0.00    6.29    2.19    0.00    0.00    0.00    0.00    0.00     0.21    0.00    0.03    0.00    0.00
  338    0.00    0.00    0.00    2.12    0.00    0.00  238.39    0.00    5.42    2.18    0.00    0.00    0.00    0.00    0.00     0.17    0.00    0.02    0.00    0.00
  339    0.00    0.00    0.00    2.11    0.00    0.00  238.39    0.00    5.32    2.17    0.00    0.00    0.00    0.00    0.00     0.14    0.00    0.02    0.00    0.00
  340    0.00    0.00    0.00    2.10    0.00    0.00  238.39    0.00    4.85    2.16    0.00    0.00    0.00    0.00    0.00     0.11    0.00    0.01    0.00    0.00
  341    0.00    0.00    0.00    2.09    0.00    0.00  238.39    0.00    5.44    2.15    0.00    0.00    0.00    0.00    0.00     0.09    0.00    0.01    0.00    0.00
  342    0.00    0.00    0.00    2.07    0.00    0.00  238.39    0.00    5.97    2.13    0.00    0.00    0.00    0.00    0.00     0.08    0.00    0.01    0.00    0.00
  343    0.00    0.00    0.00    2.05    0.00    0.00  238.39    0.00    5.22    2.11    0.00    0.00    0.00    0.00    0.00     0.06    0.00    0.01    0.00    0.00
  344    0.00    0.00    0.00    2.03    0.00    0.00  238.39    0.00    6.36    2.09    0.00    0.00    0.00    0.00    0.00     0.05    0.00    0.01    0.00    0.00
  345    0.00    0.00    0.00    2.01    0.00    0.00  238.39    0.00    4.73    2.07    0.00    0.00    0.00    0.00    0.00     0.04    0.00    0.01    0.00    0.00
  346    0.00    0.00    0.00    1.99    0.00    0.00  238.39    0.00    4.93    2.05    0.00    0.00    0.00    0.00    0.00     0.04    0.00    0.00    0.00    0.00
  347    0.00    0.00    0.00    1.97    0.00    0.00  238.39    0.00    4.82    2.03    0.00    0.00    0.00    0.00    0.00     0.03    0.00    0.00    0.00    0.00
  348    0.00    0.00    0.00    1.94    0.00    0.00  238.39    0.00    5.19    2.00    0.00    0.00    0.00    0.00    0.00     0.02    0.00    0.00    0.00    0.00
  349    0.00    0.00    0.00    1.91    0.00    0.00  238.39    0.00    4.73    1.98    0.00    0.00    0.00    0.00    0.00     0.02    0.00    0.00    0.00    0.00
  350    0.00    0.00    0.00    1.89    0.00    0.00  238.39    0.00    5.41    1.95    0.00    0.00    0.00    0.00    0.00     0.02    0.00    0.00    0.00    0.00
  351    0.80    0.11    0.00    1.86    0.00    0.00  238.12    1.08    2.18    2.04    0.00    0.00    0.00    0.00    0.00     0.01    0.00    0.00    0.00    0.00
  352   29.00   17.56    0.00    1.84    4.74    0.00  243.90    1.92    1.92   19.46    0.03    0.00    0.00    0.00    0.00     0.23    0.00    0.03    0.00    3.44
  353    0.00    0.00    0.00    1.82    2.18    0.00  239.04    2.68    5.11    1.89    0.00    0.00    0.00    0.00    0.00     0.19    0.00    0.02    0.00    0.00
  354    7.10    1.78    0.00    1.80    2.11    0.00  240.80    1.79    1.80    3.46    0.00    0.00    0.00    0.00    0.00     0.17    0.00    0.02    0.00    0.36
  355   69.90   37.26    0.00    1.81   15.74    0.00  257.37    1.94    1.94   36.38    0.05    0.00    0.00    0.00    0.00     0.60    0.00    0.07    0.00    7.35
  356   43.70   26.80    0.00    1.83   15.80    0.00  258.60    0.79    1.50   25.94    0.03    0.00    0.00    0.00    0.00     0.78    0.00    0.10    0.00    4.81
  357   18.40    7.97    0.00    1.87   13.67    0.00  255.40    1.36    1.37   15.50    0.04    0.00    0.00    0.00    0.00     0.74    0.00    0.09    0.00    1.25
  358    7.40    1.31    0.00    1.91    9.99    0.00  250.55    1.71    1.72    3.38    0.00    0.00    0.00    0.00    0.00     0.62    0.00    0.08    0.00    0.25
  359    0.00    0.00    0.00    1.96    5.12    0.00  242.67    2.76    5.27    2.03    0.00    0.00    0.00    0.00    0.00     0.51    0.00    0.06    0.00    0.00
  360    0.00    0.00    0.00    2.00    1.58    0.00  237.95    3.14    5.99    2.07    0.00    0.00    0.00    0.00    0.00     0.42    0.00    0.05    0.00    0.00
  361    0.00    0.00    0.00    2.04    0.00    0.00  237.95    0.00    4.88    2.11    0.00    0.00    0.00    0.00    0.00     0.35    0.00    0.04    0.00    0.00
  362    0.00    0.00    0.00    2.07    0.00    0.00  237.95    0.00    6.58    2.14    0.00    0.00    0.00    0.00    0.00     0.28    0.00    0.04    0.00    0.00
  363    0.00    0.00    0.00    2.09    0.00    0.00  237.95    0.00    5.02    2.16    0.00    0.00    0.00    0.00    0.00     0.23    0.00    0.03    0.00    0.00
  364    0.00    0.00    0.00    2.11    0.00    0.00  237.95    0.00    5.82    2.19    0.00    0.00    0.00    0.00    0.00     0.19    0.00    0.02    0.00    0.00
  365    0.00    0.00    0.00    2.13    0.00    0.00  237.95    0.00    8.31    2.20    0.00    0.00    0.00    0.00    0.00     0.16    0.00    0.02    0.00    0.00
   12  194.00  103.73    0.08   61.82   75.04    0.00  237.95   23.03  141.43  167.53    0.18    0.00    0.00    0.01    0.00     7.13    0.01    0.88    0.00   18.37

 2001 1429.70  728.04    0.28  127.15  289.14    0.00  237.95  400.85 1935.02  859.16    1.10    0.01    0.00    0.05   19.99    84.79    0.11   10.48    0.00  144.71
1
    SWAT Sep 7    VER 2018/Rev 670                                                  

    General Input/Output section (file.cio):                                        
    02/05/2024 12:00:00 AM ARCGIS-SWAT interface AV                                 
                                                                                    
    FINAL VALUES

1
    SWAT Sep 7    VER 2018/Rev 670                                                  

    General Input/Output section (file.cio):                                        
    02/05/2024 12:00:00 AM ARCGIS-SWAT interface AV                                 
                                                                                    
                                            Average Plant Values (kg/ha)

  HRU       1 SUB   1 BERM  Yld =  2072.2 BIOM =   2955.8

    HRU STATISTICS

                AVE ANNUAL VALUES

   HRU  SUB  SOIL       AREAkm2    CN     AWCmm   USLE_LS  IRRmm  AUTONkh AUTOPkh  MIXEF PRECmm SURQGENmm   GWQmm    ETmm   SEDth  NO3kgh  ORGNkgh BIOMth   YLDth  SURQmm
      1   1   Habitati   .830E+03   86.22  240.00    0.56    0.00  350.00    0.00    0.20 1429.70  728.04  127.43  400.85    1.10    0.01   84.79    2.96    2.07  728.04



                AVE MONTHLY BASIN VALUES
                   SNOW                      WATER               SED
  MON     RAIN     FALL   SURF Q    LAT Q    YIELD       ET    YIELD      PET
          (MM)     (MM)     (MM)     (MM)     (MM)     (MM)   (T/HA)     (MM)
    1     0.00     0.00     0.00     0.00     0.00     0.00     0.00   169.80
    2     0.00     0.00     0.00     0.00     0.00     0.00     0.00   164.56
    3     0.00     0.00     0.00     0.00     0.00    57.38     0.00   186.24
    4    98.90     0.00    26.76     0.00    26.76    87.77     0.00   184.37
    5    14.10     0.00     2.50     0.01     2.51    62.53     0.00   185.17
    6    57.40     0.00    19.96     0.01    19.96    33.25     0.00   180.22
    7   176.20     0.00    54.88     0.01    54.89     5.43     0.01   142.56
    8    61.60     0.00    18.54     0.02    18.56     9.83     0.01   169.83
    9   149.30     0.00    87.19     0.02    87.23    28.14     0.12   133.78
   10   431.30     0.00   259.49     0.05   270.35    55.91     0.44   140.96
   11   246.90     0.00   154.99     0.07   211.36    37.59     0.34   136.09
   12   194.00     0.00   103.73     0.08   167.53    23.03     0.18   141.43

     AVE ANNUAL BASIN STRESS DAYS
               WATER STRESS DAYS =     9.92
               TEMPERATURE STRESS DAYS =     7.00
               NITROGEN STRESS DAYS =    69.21
               PHOSPHORUS STRESS DAYS =     0.00
               AERATION STRESS DAYS =     0.00
1
    SWAT Sep 7    VER 2018/Rev 670                                                  

    General Input/Output section (file.cio):                                        
    02/05/2024 12:00:00 AM ARCGIS-SWAT interface AV                                 
                                                                                    
         AVE ANNUAL BASIN VALUES

              PRECIP =   1429.7 MM
              SNOW FALL =    0.00 MM
              SNOW MELT =     0.00 MM
              SUBLIMATION =     0.00 MM
              SURFACE RUNOFF Q =   728.04 MM
              LATERAL SOIL Q =    0.28 MM
              TILE Q =     0.00 MM
              GROUNDWATER (SHAL AQ) Q =   127.15 MM
              GROUNDWATER (DEEP AQ) Q =     3.69 MM
              REVAP (SHAL AQ => SOIL/PLANTS) =   38.70 MM
              DEEP AQ RECHARGE =    10.54 MM
              TOTAL AQ RECHARGE =  210.78 MM
              TOTAL WATER YLD =   859.16 MM
              PERCOLATION OUT OF SOIL =  289.14 MM
              ET =    400.8 MM
              PET =   1935.0MM
              TRANSMISSION LOSSES =     0.00 MM
              SEPTIC INFLOW =       0.00 MM
              TOTAL SEDIMENT LOADING =      1.10 T/HA
              TILE FROM IMPOUNDED WATER =     0.000 (MM)
              EVAPORATION FROM IMPOUNDED WATER =     0.000 (MM)
              SEEPAGE INTO SOIL FROM IMPOUNDED WATER =    0.000 (MM)
              OVERFLOW FROM IMPOUNDED WATER =    0.000 (MM)
1
    SWAT Sep 7    VER 2018/Rev 670                                                  

    General Input/Output section (file.cio):                                        
    02/05/2024 12:00:00 AM ARCGIS-SWAT interface AV                                 
                                                                                    
              AVE ANNUAL BASIN VALUES


              NUTRIENTS
                   ORGANIC N =    84.794 (KG/HA)
                   ORGANIC P =    10.481 (KG/HA)
                   NO3 YIELD (SQ) =     0.008 (KG/HA)
                   NO3 YIELD (LAT) =    0.000 (KG/HA)
                   NO3 YIELD (TILE) =    0.000 (KG/HA)
                   SOLP YIELD (TILE) =    0.000(KG/HA)
                   SOLP YIELD (SURF INLET RISER) =    0.000 (KG/HA)
                   SOL P YIELD =    0.110 (KG/HA)
                   NO3 LEACHED =     0.047 (KG/HA)
                   P LEACHED =     0.123 (KG/HA)
                   N UPTAKE =    19.989 (KG/HA)
                   P UPTAKE =    5.641 (KG/HA)
                   NO3 YIELD (GWQ) =     0.000 (KG/HA)
                   ACTIVE TO SOLUTION P FLOW =        17.139 (KG/HA)
                   ACTIVE TO STABLE P FLOW =        66.948 (KG/HA)
                   N FERTILIZER APPLIED =   350.000 (KG/HA)
                   P FERTILIZER APPLIED =     0.000 (KG/HA)
                   N FIXATION =     0.000 (KG/HA)
                   DENITRIFICATION =   396.033 (KG/HA)
                   HUMUS MIN ON ACTIVE ORG N =    28.332 (KG/HA)
                   ACTIVE TO STABLE ORG N =    -2.302 (KG/HA)
                   HUMUS MIN ON ACTIVE ORG P =    4.857 (KG/HA)
                   MIN FROM FRESH ORG N =    3.186 (KG/HA)
                   MIN FROM FRESH ORG P =    0.899 (KG/HA)
                   NO3 IN RAINFALL =     0.000 (KG/HA)
                   INITIAL NO3 IN SOIL =      35.229 (KG/HA)
                   FINAL NO3 IN SOIL =         0.035 (KG/HA)
                   INITIAL ORG N IN SOIL =   15750.000 (KG/HA)
                   FINAL ORG N IN SOIL =     15637.579 (KG/HA)
                   INITIAL MIN P IN SOIL =    3504.348 (KG/HA)
                   FINAL MIN P IN SOIL =      3485.914 (KG/HA)
                   INITIAL ORG P IN SOIL =    1929.375 (KG/HA)
                   FINAL ORG P IN SOIL =    1914.353 (KG/HA)
                   NO3 IN FERT =   350.000 (KG/HA)
                   AMMONIA IN FERT =     0.000 (KG/HA)
                   ORG N IN FERT =     0.000 (KG/HA)
                   MINERAL P IN FERT =     0.000 (KG/HA)
                   ORG P IN FERT =     0.000 (KG/HA)
                   N REMOVED IN YIELD =    15.991 (KG/HA)
                   P REMOVED IN YIELD =     4.513 (KG/HA)
                   AMMONIA VOLATILIZATION =     0.000 (KG/HA)
                   AMMONIA NITRIFICATION =      0.000 (KG/HA)
                   NO3 EVAP-LAYER 2 TO 1 =    0.002

                   DIE-GRO P Q =           0.0 (No/M2)
                   DIE-GRO LP Q =           0.0 (No/M2)
                   DIE-GRO P SED =          0.0 (No/M2)
                   DIE-GRO LP SED =          0.0 (No/M2)
                   BACT P RUNOFF =          0.0 (No/M2)
                   BACT LP RUNOFF =          0.0 (No/M2)
                   BACT P SEDIMENT =          0.0 (No/M2)
                   BACT LP SEDIMENT =          0.0 (No/M2)
                   BACT P INCORP =          0.0 (No/M2)
                   BACT LP INCORP =          0.0 (No/M2)

                   NITRATE SEPTIC =         0.00 (kg/ha)
                   AMMONIA SEPTIC =         0.00 (kg/ha)
                   ORG N SEPTIC =         0.00 (kg/ha)
                   FRESH ORGN SEPTIC =         0.00 (kg/ha)
                   ORG P SEPTIC =         0.00 (kg/ha)
                   FRESH ORGP SEPTIC =         0.00 (kg/ha)
                   SOL P SEPTIC =         0.00 (kg/ha)
                   BOD SEPTIC =         0.00 (kg/ha)
