1
    SWAT Sep 7    VER 2018/Rev 670                                                                       0/ 0/   0      0: 0: 0

    General Input/Output section (file.cio):                                        
    02/05/2024 12:00:00 AM ARCGIS-SWAT interface AV                                 
                                                                                    
         Number of years in run:    1
         Area of watershed:      830.234 km2
1
    SWAT Sep 7    VER 2018/Rev 670                                                  

    General Input/Output section (file.cio):                                        
    02/05/2024 12:00:00 AM ARCGIS-SWAT interface AV                                 
                                                                                    
Annual Summary for Watershed in year    1 of simulation

UNIT                                    PERCO    TILE                           WATER     SED     NO3     NO3     NO3     NO3        N       P       P
TIME     PREC    SURQ    LATQ     GWQ    LATE       Q     SW       ET     PET   YIELD   YIELD    SURQ    LATQ    PERC    CROP  ORGANIC SOLUBLE ORGANIC TILENO3
         (mm)    (mm)    (mm)    (mm)    (mm)    (mm)    (mm)    (mm)    (mm)    (mm)   (t/ha)  ------------------(kg nutrient/ha)-------------------- (kg/ha)
    1    0.00    0.00    0.00    0.00    0.00    0.00  131.14    0.00    5.10    0.00    0.00    0.00    0.00    0.00    0.00     0.00    0.00    0.00    0.00    0.00
    2    0.00    0.00    0.00    0.00    0.00    0.00  131.14    0.00    7.03    0.00    0.00    0.00    0.00    0.00    0.00     0.00    0.00    0.00    0.00    0.00
    3    0.00    0.00    0.00    0.00    0.00    0.00  131.14    0.00    5.78    0.00    0.00    0.00    0.00    0.00    0.00     0.00    0.00    0.00    0.00    0.00
    4    0.00    0.00    0.00    0.00    0.00    0.00  131.14    0.00    5.32    0.00    0.00    0.00    0.00    0.00    0.00     0.00    0.00    0.00    0.00    0.00
    5    0.00    0.00    0.00    0.00    0.00    0.00  131.14    0.00    5.46    0.00    0.00    0.00    0.00    0.00    0.00     0.00    0.00    0.00    0.00    0.00
    6    0.00    0.00    0.00    0.00    0.00    0.00  131.14    0.00    5.57    0.00    0.00    0.00    0.00    0.00    0.00     0.00    0.00    0.00    0.00    0.00
    7    0.00    0.00    0.00    0.00    0.00    0.00  131.14    0.00    5.73    0.00    0.00    0.00    0.00    0.00    0.00     0.00    0.00    0.00    0.00    0.00
    8    0.00    0.00    0.00    0.00    0.00    0.00  131.14    0.00    5.54    0.00    0.00    0.00    0.00    0.00    0.00     0.00    0.00    0.00    0.00    0.00
    9    0.00    0.00    0.00    0.00    0.00    0.00  131.14    0.00    5.23    0.00    0.00    0.00    0.00    0.00    0.00     0.00    0.00    0.00    0.00    0.00
   10    0.00    0.00    0.00    0.00    0.00    0.00  131.14    0.00    6.24    0.00    0.00    0.00    0.00    0.00    0.00     0.00    0.00    0.00    0.00    0.00
   11    0.00    0.00    0.00    0.00    0.00    0.00  131.14    0.00    5.05    0.00    0.00    0.00    0.00    0.00    0.00     0.00    0.00    0.00    0.00    0.00
   12    0.00    0.00    0.00    0.00    0.00    0.00  131.14    0.00    5.21    0.00    0.00    0.00    0.00    0.00    0.00     0.00    0.00    0.00    0.00    0.00
   13    0.00    0.00    0.00    0.00    0.00    0.00  131.14    0.00    4.88    0.00    0.00    0.00    0.00    0.00    0.00     0.00    0.00    0.00    0.00    0.00
   14    0.00    0.00    0.00    0.00    0.00    0.00  131.14    0.00    5.65    0.00    0.00    0.00    0.00    0.00    0.00     0.00    0.00    0.00    0.00    0.00
   15    0.00    0.00    0.00    0.00    0.00    0.00  131.14    0.00    5.55    0.00    0.00    0.00    0.00    0.00    0.00     0.00    0.00    0.00    0.00    0.00
   16    0.00    0.00    0.00    0.00    0.00    0.00  131.14    0.00    5.96    0.00    0.00    0.00    0.00    0.00    0.00     0.00    0.00    0.00    0.00    0.00
   17    0.00    0.00    0.00    0.00    0.00    0.00  131.14    0.00    4.90    0.00    0.00    0.00    0.00    0.00    0.00     0.00    0.00    0.00    0.00    0.00
   18    0.00    0.00    0.00    0.00    0.00    0.00  131.14    0.00    5.33    0.00    0.00    0.00    0.00    0.00    0.00     0.00    0.00    0.00    0.00    0.00
   19    0.00    0.00    0.00    0.00    0.00    0.00  131.14    0.00    4.85    0.00    0.00    0.00    0.00    0.00    0.00     0.00    0.00    0.00    0.00    0.00
   20    0.00    0.00    0.00    0.00    0.00    0.00  131.14    0.00    4.74    0.00    0.00    0.00    0.00    0.00    0.00     0.00    0.00    0.00    0.00    0.00
   21    0.00    0.00    0.00    0.00    0.00    0.00  131.14    0.00    6.45    0.00    0.00    0.00    0.00    0.00    0.00     0.00    0.00    0.00    0.00    0.00
   22    0.00    0.00    0.00    0.00    0.00    0.00  131.14    0.00    6.66    0.00    0.00    0.00    0.00    0.00    0.00     0.00    0.00    0.00    0.00    0.00
   23    0.00    0.00    0.00    0.00    0.00    0.00  131.14    0.00    4.79    0.00    0.00    0.00    0.00    0.00    0.00     0.00    0.00    0.00    0.00    0.00
   24    0.00    0.00    0.00    0.00    0.00    0.00  131.14    0.00    5.14    0.00    0.00    0.00    0.00    0.00    0.00     0.00    0.00    0.00    0.00    0.00
   25    0.00    0.00    0.00    0.00    0.00    0.00  131.14    0.00    6.32    0.00    0.00    0.00    0.00    0.00    0.00     0.00    0.00    0.00    0.00    0.00
   26    0.00    0.00    0.00    0.00    0.00    0.00  131.14    0.00    5.60    0.00    0.00    0.00    0.00    0.00    0.00     0.00    0.00    0.00    0.00    0.00
   27    0.00    0.00    0.00    0.00    0.00    0.00  131.14    0.00    5.04    0.00    0.00    0.00    0.00    0.00    0.00     0.00    0.00    0.00    0.00    0.00
   28    0.00    0.00    0.00    0.00    0.00    0.00  131.14    0.00    5.10    0.00    0.00    0.00    0.00    0.00    0.00     0.00    0.00    0.00    0.00    0.00
   29    0.00    0.00    0.00    0.00    0.00    0.00  131.14    0.00    5.02    0.00    0.00    0.00    0.00    0.00    0.00     0.00    0.00    0.00    0.00    0.00
   30    0.00    0.00    0.00    0.00    0.00    0.00  131.14    0.00    5.34    0.00    0.00    0.00    0.00    0.00    0.00     0.00    0.00    0.00    0.00    0.00
   31    0.00    0.00    0.00    0.00    0.00    0.00  131.14    0.00    5.23    0.00    0.00    0.00    0.00    0.00    0.00     0.00    0.00    0.00    0.00    0.00
    1    0.00    0.00    0.00    0.00    0.00    0.00  131.14    0.00  169.80    0.00    0.00    0.00    0.00    0.00    0.00     0.00    0.00    0.00    0.00    0.00
   32    0.00    0.00    0.00    0.00    0.00    0.00  131.14    0.00    5.46    0.00    0.00    0.00    0.00    0.00    0.00     0.00    0.00    0.00    0.00    0.00
   33    0.00    0.00    0.00    0.00    0.00    0.00  131.14    0.00    6.20    0.00    0.00    0.00    0.00    0.00    0.00     0.00    0.00    0.00    0.00    0.00
   34    0.00    0.00    0.00    0.00    0.00    0.00  131.14    0.00    6.13    0.00    0.00    0.00    0.00    0.00    0.00     0.00    0.00    0.00    0.00    0.00
   35    0.00    0.00    0.00    0.00    0.00    0.00  131.14    0.00    5.17    0.00    0.00    0.00    0.00    0.00    0.00     0.00    0.00    0.00    0.00    0.00
   36    0.00    0.00    0.00    0.00    0.00    0.00  131.14    0.00    5.83    0.00    0.00    0.00    0.00    0.00    0.00     0.00    0.00    0.00    0.00    0.00
   37    0.00    0.00    0.00    0.00    0.00    0.00  131.14    0.00    5.21    0.00    0.00    0.00    0.00    0.00    0.00     0.00    0.00    0.00    0.00    0.00
   38    0.00    0.00    0.00    0.00    0.00    0.00  131.14    0.00    6.53    0.00    0.00    0.00    0.00    0.00    0.00     0.00    0.00    0.00    0.00    0.00
   39    0.00    0.00    0.00    0.00    0.00    0.00  131.14    0.00    5.60    0.00    0.00    0.00    0.00    0.00    0.00     0.00    0.00    0.00    0.00    0.00
   40    0.00    0.00    0.00    0.00    0.00    0.00  131.14    0.00    6.31    0.00    0.00    0.00    0.00    0.00    0.00     0.00    0.00    0.00    0.00    0.00
   41    0.00    0.00    0.00    0.00    0.00    0.00  131.14    0.00    5.46    0.00    0.00    0.00    0.00    0.00    0.00     0.00    0.00    0.00    0.00    0.00
   42    0.00    0.00    0.00    0.00    0.00    0.00  131.14    0.00    5.06    0.00    0.00    0.00    0.00    0.00    0.00     0.00    0.00    0.00    0.00    0.00
   43    0.00    0.00    0.00    0.00    0.00    0.00  131.14    0.00    5.72    0.00    0.00    0.00    0.00    0.00    0.00     0.00    0.00    0.00    0.00    0.00
   44    0.00    0.00    0.00    0.00    0.00    0.00  131.14    0.00    6.17    0.00    0.00    0.00    0.00    0.00    0.00     0.00    0.00    0.00    0.00    0.00
   45    0.00    0.00    0.00    0.00    0.00    0.00  131.14    0.00    6.35    0.00    0.00    0.00    0.00    0.00    0.00     0.00    0.00    0.00    0.00    0.00
   46    0.00    0.00    0.00    0.00    0.00    0.00  131.14    0.00    6.45    0.00    0.00    0.00    0.00    0.00    0.00     0.00    0.00    0.00    0.00    0.00
   47    0.00    0.00    0.00    0.00    0.00    0.00  131.14    0.00    5.48    0.00    0.00    0.00    0.00    0.00    0.00     0.00    0.00    0.00    0.00    0.00
   48    0.00    0.00    0.00    0.00    0.00    0.00  131.14    0.00    5.86    0.00    0.00    0.00    0.00    0.00    0.00     0.00    0.00    0.00    0.00    0.00
   49    0.00    0.00    0.00    0.00    0.00    0.00  131.14    0.00    5.89    0.00    0.00    0.00    0.00    0.00    0.00     0.00    0.00    0.00    0.00    0.00
   50    0.00    0.00    0.00    0.00    0.00    0.00  131.14    0.00    5.63    0.00    0.00    0.00    0.00    0.00    0.00     0.00    0.00    0.00    0.00    0.00
   51    0.00    0.00    0.00    0.00    0.00    0.00  131.14    0.00    5.55    0.00    0.00    0.00    0.00    0.00    0.00     0.00    0.00    0.00    0.00    0.00
   52    0.00    0.00    0.00    0.00    0.00    0.00  131.14    0.00    6.56    0.00    0.00    0.00    0.00    0.00    0.00     0.00    0.00    0.00    0.00    0.00
   53    0.00    0.00    0.00    0.00    0.00    0.00  131.14    0.00    6.01    0.00    0.00    0.00    0.00    0.00    0.00     0.00    0.00    0.00    0.00    0.00
   54    0.00    0.00    0.00    0.00    0.00    0.00  131.14    0.00    5.08    0.00    0.00    0.00    0.00    0.00    0.00     0.00    0.00    0.00    0.00    0.00
   55    0.00    0.00    0.00    0.00    0.00    0.00  131.14    0.00    6.52    0.00    0.00    0.00    0.00    0.00    0.00     0.00    0.00    0.00    0.00    0.00
   56    0.00    0.00    0.00    0.00    0.00    0.00  131.14    0.00    5.59    0.00    0.00    0.00    0.00    0.00    0.00     0.00    0.00    0.00    0.00    0.00
   57    0.00    0.00    0.00    0.00    0.00    0.00  131.14    0.00    6.94    0.00    0.00    0.00    0.00    0.00    0.00     0.00    0.00    0.00    0.00    0.00
   58    0.00    0.00    0.00    0.00    0.00    0.00  131.14    0.00    6.23    0.00    0.00    0.00    0.00    0.00    0.00     0.00    0.00    0.00    0.00    0.00
   59    0.00    0.00    0.00    0.00    0.00    0.00  131.14    0.00    5.58    0.00    0.00    0.00    0.00    0.00    0.00     0.00    0.00    0.00    0.00    0.00
    2    0.00    0.00    0.00    0.00    0.00    0.00  131.14    0.00  164.56    0.00    0.00    0.00    0.00    0.00    0.00     0.00    0.00    0.00    0.00    0.00
   60    0.00    0.00    0.00    0.00    0.00    0.00  131.14    0.00    5.89    0.00    0.00    0.00    0.00    0.00    0.00     0.00    0.00    0.00    0.00    0.00
   61    0.00    0.00    0.00    0.00    0.00    0.00  131.14    0.00    5.57    0.00    0.00    0.00    0.00    0.00    0.00     0.00    0.00    0.00    0.00    0.00
   62    0.00    0.00    0.00    0.00    0.00    0.00  131.02    0.12    6.46    0.00    0.00    0.00    0.00    0.00    0.00     0.00    0.00    0.00    0.00    0.00
   63    0.00    0.00    0.00    0.00    0.00    0.00  130.78    0.24    5.72    0.00    0.00    0.00    0.00    0.00    0.03     0.00    0.00    0.00    0.00    0.00
   64    0.00    0.00    0.00    0.00    0.00    0.00  130.43    0.35    6.45    0.00    0.00    0.00    0.00    0.00    0.02     0.00    0.00    0.00    0.00    0.00
   65    0.00    0.00    0.00    0.00    0.00    0.00  129.96    0.47    6.28    0.00    0.00    0.00    0.00    0.00    1.17     0.00    0.00    0.00    0.00    0.00
   66    0.00    0.00    0.00    0.00    0.00    0.00  129.35    0.61    6.26    0.00    0.00    0.00    0.00    0.00    1.36     0.00    0.00    0.00    0.00    0.00
   67    0.00    0.00    0.00    0.00    0.00    0.00  128.54    0.81    6.18    0.00    0.00    0.00    0.00    0.00    0.54     0.00    0.00    0.00    0.00    0.00
   68    0.00    0.00    0.00    0.00    0.00    0.00  126.44    2.10    5.31    0.00    0.00    0.00    0.00    0.00    3.75     0.00    0.00    0.00    0.00    0.00
   69    0.00    0.00    0.00    0.00    0.00    0.00  124.81    1.63    5.46    0.00    0.00    0.00    0.00    0.00    1.50     0.00    0.00    0.00    0.00    0.00
   70    0.00    0.00    0.00    0.00    0.00    0.00  123.49    1.32    6.12    0.00    0.00    0.00    0.00    0.00    0.89     0.00    0.00    0.00    0.00    0.00
   71    0.00    0.00    0.00    0.00    0.00    0.00  120.92    2.57    5.75    0.00    0.00    0.00    0.00    0.00    6.94     0.00    0.00    0.00    0.00    0.00
   72    0.00    0.00    0.00    0.00    0.00    0.00  118.76    2.16    5.83    0.00    0.00    0.00    0.00    0.00    1.14     0.00    0.00    0.00    0.00    0.00
   73    0.00    0.00    0.00    0.00    0.00    0.00  116.17    2.60    6.34    0.00    0.00    0.00    0.00    0.00    1.12     0.00    0.00    0.00    0.00    0.00
   74    0.00    0.00    0.00    0.00    0.00    0.00  113.68    2.49    6.84    0.00    0.00    0.00    0.00    0.00    0.10     0.00    0.00    0.00    0.00    0.00
   75    0.00    0.00    0.00    0.00    0.00    0.00  111.52    2.17    5.94    0.00    0.00    0.00    0.00    0.00    0.02     0.00    0.00    0.00    0.00    0.00
   76    0.00    0.00    0.00    0.00    0.00    0.00  109.33    2.18    7.16    0.00    0.00    0.00    0.00    0.00    0.02     0.00    0.00    0.00    0.00    0.00
   77    0.00    0.00    0.00    0.00    0.00    0.00  107.04    2.29    7.33    0.00    0.00    0.00    0.00    0.00    0.02     0.00    0.00    0.00    0.00    0.00
   78    0.00    0.00    0.00    0.00    0.00    0.00  104.44    2.60    5.89    0.00    0.00    0.00    0.00    0.00    0.02     0.00    0.00    0.00    0.00    0.00
   79    0.00    0.00    0.00    0.00    0.00    0.00  101.51    2.94    5.60    0.00    0.00    0.00    0.00    0.00    0.02     0.00    0.00    0.00    0.00    0.00
   80    0.00    0.00    0.00    0.00    0.00    0.00   99.15    2.36    5.61    0.00    0.00    0.00    0.00    0.00    0.02     0.00    0.00    0.00    0.00    0.00
   81    0.00    0.00    0.00    0.00    0.00    0.00   96.41    2.74    5.79    0.00    0.00    0.00    0.00    0.00    0.02     0.00    0.00    0.00    0.00    0.00
   82    0.00    0.00    0.00    0.00    0.00    0.00   94.09    2.32    6.18    0.00    0.00    0.00    0.00    0.00    0.02     0.00    0.00    0.00    0.00    0.00
   83    0.00    0.00    0.00    0.00    0.00    0.00   91.23    2.86    5.95    0.00    0.00    0.00    0.00    0.00    0.02     0.00    0.00    0.00    0.00    0.00
   84    0.00    0.00    0.00    0.00    0.00    0.00   88.56    2.67    5.76    0.00    0.00    0.00    0.00    0.00    0.02     0.00    0.00    0.00    0.00    0.00
   85    0.00    0.00    0.00    0.00    0.00    0.00   86.33    2.23    6.30    0.00    0.00    0.00    0.00    0.00    0.02     0.00    0.00    0.00    0.00    0.00
   86    0.00    0.00    0.00    0.00    0.00    0.00   84.10    2.23    5.43    0.00    0.00    0.00    0.00    0.00    0.02     0.00    0.00    0.00    0.00    0.00
   87    0.00    0.00    0.00    0.00    0.00    0.00   81.10    3.00    5.85    0.00    0.00    0.00    0.00    0.00    0.02     0.00    0.00    0.00    0.00    0.00
   88    0.00    0.00    0.00    0.00    0.00    0.00   78.53    2.57    5.51    0.00    0.00    0.00    0.00    0.00    0.02     0.00    0.00    0.00    0.00    0.00
   89    0.00    0.00    0.00    0.00    0.00    0.00   75.93    2.60    5.63    0.00    0.00    0.00    0.00    0.00    0.02     0.00    0.00    0.00    0.00    0.00
   90    0.00    0.00    0.00    0.00    0.00    0.00   73.73    2.20    5.83    0.00    0.00    0.00    0.00    0.00    0.02     0.00    0.00    0.00    0.00    0.00
    3    0.00    0.00    0.00    0.00    0.00    0.00   73.73   57.42  186.24    0.00    0.00    0.00    0.00    0.00   18.92     0.00    0.00    0.00    0.00    0.00
   91    0.00    0.00    0.00    0.00    0.00    0.00   70.79    2.94    5.60    0.00    0.00    0.00    0.00    0.00    0.02     0.00    0.00    0.00    0.00    0.00
   92    0.00    0.00    0.00    0.00    0.00    0.00   68.04    2.75    6.19    0.00    0.00    0.00    0.00    0.00    0.02     0.00    0.00    0.00    0.00    0.00
   93    0.00    0.00    0.00    0.00    0.00    0.00   65.79    2.24    6.08    0.00    0.00    0.00    0.00    0.00    0.02     0.00    0.00    0.00    0.00    0.00
   94    0.00    0.00    0.00    0.00    0.00    0.00   62.65    3.14    7.67    0.00    0.00    0.00    0.00    0.00    0.02     0.00    0.00    0.00    0.00    0.00
   95    0.00    0.00    0.00    0.00    0.00    0.00   59.90    2.75    6.51    0.00    0.00    0.00    0.00    0.00    0.02     0.00    0.00    0.00    0.00    0.00
   96    0.00    0.00    0.00    0.00    0.00    0.00   57.33    2.57    6.67    0.00    0.00    0.00    0.00    0.00    0.02     0.00    0.00    0.00    0.00    0.00
   97    0.00    0.00    0.00    0.00    0.00    0.00   54.89    2.44    6.69    0.00    0.00    0.00    0.00    0.00    0.02     0.00    0.00    0.00    0.00    0.00
   98    0.00    0.00    0.00    0.00    0.00    0.00   52.29    2.60    6.52    0.00    0.00    0.00    0.00    0.00    0.02     0.00    0.00    0.00    0.00    0.00
   99    0.00    0.00    0.00    0.00    0.00    0.00   49.90    2.39    4.64    0.00    0.00    0.00    0.00    0.00    0.02     0.00    0.00    0.00    0.00    0.00
  100    0.00    0.00    0.00    0.00    0.00    0.00   47.34    2.56    6.48    0.00    0.00    0.00    0.00    0.00    0.02     0.00    0.00    0.00    0.00    0.00
  101   12.60    1.80    0.00    0.00    0.00    0.00   58.72    0.86    1.96    1.80    0.00    0.00    0.00    0.00    0.02     0.01    0.00    0.00    0.00    0.00
  102   29.00    4.13    0.00    0.00    0.00    0.00   82.36    2.88    3.89    4.13    0.00    0.00    0.00    0.00    0.02     0.02    0.00    0.00    0.00    0.00
  103   44.80    8.68    0.00    0.00    0.00    0.00  119.65    1.78    3.99    8.63    0.00    0.00    0.00    0.00    0.02     0.05    0.00    0.01    0.00    0.00
  104   12.50    1.78    0.00    0.00    0.00    0.00  130.54    1.15    1.63    1.84    0.00    0.00    0.00    0.00    0.02     0.04    0.00    0.01    0.00    0.00
  105    0.00    0.00    0.00    0.00    0.00    0.00  127.40    3.14    6.44    0.00    0.00    0.00    0.00    0.00    0.02     0.03    0.00    0.00    0.00    0.00
  106    0.00    0.00    0.00    0.00    0.00    0.00  123.79    3.60    6.95    0.00    0.00    0.00    0.00    0.00    0.02     0.03    0.00    0.00    0.00    0.00
  107    0.00    0.00    0.00    0.00    0.00    0.00  120.54    3.25    6.63    0.00    0.00    0.00    0.00    0.00    0.02     0.02    0.00    0.00    0.00    0.00
  108    0.00    0.00    0.00    0.00    0.00    0.00  117.10    3.44    6.48    0.00    0.00    0.00    0.00    0.00    0.02     0.02    0.00    0.00    0.00    0.00
  109    0.00    0.00    0.00    0.00    0.00    0.00  113.76    3.35    6.84    0.00    0.00    0.00    0.00    0.00    0.02     0.02    0.00    0.00    0.00    0.00
  110    0.00    0.00    0.00    0.00    0.00    0.00  110.18    3.58    6.37    0.00    0.00    0.00    0.00    0.00    0.02     0.01    0.00    0.00    0.00    0.00
  111    0.00    0.00    0.00    0.00    0.00    0.00  106.66    3.51    6.61    0.00    0.00    0.00    0.00    0.00    0.02     0.01    0.00    0.00    0.00    0.00
  112    0.00    0.00    0.00    0.00    0.00    0.00  102.82    3.84    7.78    0.00    0.00    0.00    0.00    0.00    0.02     0.01    0.00    0.00    0.00    0.00
  113    0.00    0.00    0.00    0.00    0.00    0.00   99.66    3.17    8.29    0.00    0.00    0.00    0.00    0.00    0.02     0.01    0.00    0.00    0.00    0.00
  114    0.00    0.00    0.00    0.00    0.00    0.00   96.23    3.42    7.40    0.00    0.00    0.00    0.00    0.00    0.02     0.01    0.00    0.00    0.00    0.00
  115    0.00    0.00    0.00    0.00    0.00    0.00   92.48    3.75    8.07    0.00    0.00    0.00    0.00    0.00    0.02     0.01    0.00    0.00    0.00    0.00
  116    0.00    0.00    0.00    0.00    0.00    0.00   89.49    2.99    6.13    0.00    0.00    0.00    0.00    0.00    0.02     0.00    0.00    0.00    0.00    0.00
  117    0.00    0.00    0.00    0.00    0.00    0.00   87.28    2.21    5.06    0.00    0.00    0.00    0.00    0.00    0.02     0.00    0.00    0.00    0.00    0.00
  118    0.00    0.00    0.00    0.00    0.00    0.00   83.57    3.72    6.78    0.00    0.00    0.00    0.00    0.00    0.02     0.00    0.00    0.00    0.00    0.00
  119    0.00    0.00    0.00    0.00    0.00    0.00   80.03    3.53    6.59    0.00    0.00    0.00    0.00    0.00    0.02     0.00    0.00    0.00    0.00    0.00
  120    0.00    0.00    0.00    0.00    0.00    0.00   76.42    3.62    7.44    0.00    0.00    0.00    0.00    0.00    0.02     0.00    0.00    0.00    0.00    0.00
    4   98.90   16.39    0.03    0.00    0.00    0.00   76.42   87.18  184.37   16.42    0.00    0.00    0.00    0.00    0.63     0.30    0.00    0.04    0.00    0.00
  121    0.00    0.00    0.00    0.00    0.00    0.00   72.66    3.75    8.98    0.00    0.00    0.00    0.00    0.00    0.02     0.00    0.00    0.00    0.00    0.00
  122    0.00    0.00    0.00    0.00    0.00    0.00   69.86    2.80    5.11    0.00    0.00    0.00    0.00    0.00    0.02     0.00    0.00    0.00    0.00    0.00
  123    0.00    0.00    0.00    0.00    0.00    0.00   67.24    2.62    5.93    0.00    0.00    0.00    0.00    0.00    0.02     0.00    0.00    0.00    0.00    0.00
  124    0.00    0.00    0.00    0.00    0.00    0.00   63.57    3.67    6.39    0.00    0.00    0.00    0.00    0.00    0.02     0.00    0.00    0.00    0.00    0.00
  125    0.00    0.00    0.00    0.00    0.00    0.00   59.99    3.58    6.74    0.00    0.00    0.00    0.00    0.00    0.02     0.00    0.00    0.00    0.00    0.00
  126    0.10    0.01    0.00    0.00    0.00    0.00   58.14    1.95    3.36    0.02    0.00    0.00    0.00    0.00    0.02     0.00    0.00    0.00    0.00    0.00
  127    0.10    0.01    0.00    0.00    0.00    0.00   56.16    2.08    4.32    0.02    0.00    0.00    0.00    0.00    0.02     0.00    0.00    0.00    0.00    0.00
  128    0.00    0.00    0.00    0.00    0.00    0.00   52.91    3.26    6.73    0.00    0.00    0.00    0.00    0.00    0.02     0.00    0.00    0.00    0.00    0.00
  129    0.00    0.00    0.00    0.00    0.00    0.00   49.04    3.87    8.87    0.00    0.00    0.00    0.00    0.00    0.02     0.00    0.00    0.00    0.00    0.00
  130    0.00    0.00    0.00    0.00    0.00    0.00   44.90    4.14    8.09    0.00    0.00    0.00    0.00    0.00    0.02     0.00    0.00    0.00    0.00    0.00
  131    0.00    0.00    0.00    0.00    0.00    0.00   42.68    2.22    5.83    0.00    0.00    0.00    0.00    0.00    0.02     0.00    0.00    0.00    0.00    0.00
  132    0.00    0.00    0.00    0.00    0.00    0.00   40.55    2.13    8.18    0.00    0.00    0.00    0.00    0.00    0.02     0.00    0.00    0.00    0.00    0.00
  133    0.00    0.00    0.00    0.00    0.00    0.00   39.33    1.22    5.57    0.00    0.00    0.00    0.00    0.00    0.02     0.00    0.00    0.00    0.00    0.00
  134    0.00    0.00    0.00    0.00    0.00    0.00   38.04    1.30    6.17    0.00    0.00    0.00    0.00    0.00    0.02     0.00    0.00    0.00    0.00    0.00
  135    0.00    0.00    0.00    0.00    0.00    0.00   37.15    0.89    5.80    0.00    0.00    0.00    0.00    0.00    0.02     0.00    0.00    0.00    0.00    0.00
  136    0.00    0.00    0.00    0.00    0.00    0.00   36.10    1.04    6.57    0.00    0.00    0.00    0.00    0.00    0.02     0.00    0.00    0.00    0.00    0.00
  137    0.00    0.00    0.00    0.00    0.00    0.00   35.07    1.04    8.67    0.00    0.00    0.00    0.00    0.00    0.02     0.00    0.00    0.00    0.00    0.00
  138    0.00    0.00    0.00    0.00    0.00    0.00   34.12    0.95    6.83    0.00    0.00    0.00    0.00    0.00    0.02     0.00    0.00    0.00    0.00    0.00
  139    0.00    0.00    0.00    0.00    0.00    0.00   33.12    1.00   10.20    0.00    0.00    0.00    0.00    0.00    0.02     0.00    0.00    0.00    0.00    0.00
  140    8.50    1.21    0.00    0.00    0.00    0.00   41.29    0.12    0.45    1.21    0.00    0.00    0.00    0.00    0.02     0.00    0.00    0.00    0.00    0.00
  141    0.00    0.00    0.00    0.00    0.00    0.00   39.67    1.62    6.67    0.00    0.00    0.00    0.00    0.00    0.02     0.00    0.00    0.00    0.00    0.00
  142    2.40    0.34    0.00    0.00    0.00    0.00   40.48    1.62    3.28    0.34    0.00    0.00    0.00    0.00    0.02     0.00    0.00    0.00    0.00    0.00
  143    0.00    0.00    0.00    0.00    0.00    0.00   38.74    1.74    6.78    0.00    0.00    0.00    0.00    0.00    0.02     0.00    0.00    0.00    0.00    0.00
  144    0.00    0.00    0.00    0.00    0.00    0.00   37.76    0.98    4.97    0.00    0.00    0.00    0.00    0.00    0.02     0.00    0.00    0.00    0.00    0.00
  145    0.00    0.00    0.00    0.00    0.00    0.00   36.46    1.30    7.87    0.00    0.00    0.00    0.00    0.00    0.02     0.00    0.00    0.00    0.00    0.00
  146    0.20    0.03    0.00    0.00    0.00    0.00   36.49    0.17    1.32    0.03    0.00    0.00    0.00    0.00    0.02     0.00    0.00    0.00    0.00    0.00
  147    0.00    0.00    0.00    0.00    0.00    0.00   35.57    0.92    5.33    0.00    0.00    0.00    0.00    0.00    0.02     0.00    0.00    0.00    0.00    0.00
  148    1.70    0.24    0.00    0.00    0.00    0.00   35.99    1.31    3.19    0.24    0.00    0.00    0.00    0.00    0.02     0.00    0.00    0.00    0.00    0.00
  149    1.10    0.16    0.00    0.00    0.00    0.00   35.92    1.16    2.73    0.16    0.00    0.00    0.00    0.00    0.02     0.00    0.00    0.00    0.00    0.00
  150    0.00    0.00    0.00    0.00    0.00    0.00   34.84    1.08    6.31    0.00    0.00    0.00    0.00    0.00    0.00     0.00    0.00    0.00    0.00    0.00
  151    0.00    0.00    0.00    0.00    0.00    0.00   33.92    0.92    7.95    0.00    0.00    0.00    0.00    0.00    0.00     0.00    0.00    0.00    0.00    0.00
    5   14.10    2.01    0.03    0.00    0.00    0.00   33.92   56.44  185.17    2.04    0.00    0.00    0.00    0.00    0.53     0.01    0.00    0.00    0.00    0.00
  152    0.00    0.00    0.00    0.00    0.00    0.00   33.07    0.85    7.42    0.00    0.00    0.00    0.00    0.00    0.00     0.00    0.00    0.00    0.00    0.00
  153    0.00    0.00    0.00    0.00    0.00    0.00   32.32    0.75    7.91    0.00    0.00    0.00    0.00    0.00    0.00     0.00    0.00    0.00    0.00    0.00
  154   36.30   11.24    0.00    0.00    0.00    0.00   57.35    1.46    2.83   11.17    0.00    0.00    0.00    0.00    0.00     0.01    0.00    0.00    0.00    0.00
  155    9.10    1.30    0.00    0.00    0.00    0.00   65.10    0.98    1.35    1.37    0.00    0.00    0.00    0.00    0.00     0.01    0.00    0.00    0.00    0.00
  156    0.40    0.06    0.00    0.00    0.00    0.00   63.67    1.84    4.02    0.06    0.00    0.00    0.00    0.00    0.00     0.00    0.00    0.00    0.00    0.00
  157    0.00    0.00    0.00    0.00    0.00    0.00   59.46    4.20    8.15    0.00    0.00    0.00    0.00    0.00    0.00     0.00    0.00    0.00    0.00    0.00
  158    0.00    0.00    0.00    0.00    0.00    0.00   55.30    4.16    8.48    0.00    0.00    0.00    0.00    0.00    0.00     0.00    0.00    0.00    0.00    0.00
  159    0.00    0.00    0.00    0.00    0.00    0.00   51.79    3.51    7.48    0.00    0.00    0.00    0.00    0.00    0.00     0.00    0.00    0.00    0.00    0.00
  160    0.00    0.00    0.00    0.00    0.00    0.00   47.26    4.53   10.90    0.00    0.00    0.00    0.00    0.00    0.00     0.00    0.00    0.00    0.00    0.00
  161    0.00    0.00    0.00    0.00    0.00    0.00   43.70    3.56    8.37    0.00    0.00    0.00    0.00    0.00    0.00     0.00    0.00    0.00    0.00    0.00
  162    0.00    0.00    0.00    0.00    0.00    0.00   41.06    2.64    8.80    0.00    0.00    0.00    0.00    0.00    0.00     0.00    0.00    0.00    0.00    0.00
  163    0.00    0.00    0.00    0.00    0.00    0.00   39.21    1.85    7.32    0.00    0.00    0.00    0.00    0.00    0.00     0.00    0.00    0.00    0.00    0.00
  164    0.00    0.00    0.00    0.00    0.00    0.00   37.78    1.43    7.26    0.00    0.00    0.00    0.00    0.00    0.00     0.00    0.00    0.00    0.00    0.00
  165    0.00    0.00    0.00    0.00    0.00    0.00   36.57    1.21    6.46    0.00    0.00    0.00    0.00    0.00    0.00     0.00    0.00    0.00    0.00    0.00
  166    0.00    0.00    0.00    0.00    0.00    0.00   35.43    1.14    7.77    0.00    0.00    0.00    0.00    0.00    0.00     0.00    0.00    0.00    0.00    0.00
  167    0.00    0.00    0.00    0.00    0.00    0.00   35.43    0.00    7.02    0.00    0.00    0.00    0.00    0.00    0.00     0.00    0.00    0.00    0.00    0.00
  168    0.00    0.00    0.00    0.00    0.00    0.00   35.43    0.00    8.87    0.00    0.00    0.00    0.00    0.00    0.00     0.00    0.00    0.00    0.00    0.00
  169    0.00    0.00    0.00    0.00    0.00    0.00   35.43    0.00    9.27    0.00    0.00    0.00    0.00    0.00    0.00     0.00    0.00    0.00    0.00    0.00
  170    0.00    0.00    0.00    0.00    0.00    0.00   35.43    0.00    5.88    0.00    0.00    0.00    0.00    0.00    0.00     0.00    0.00    0.00    0.00    0.00
  171    4.40    0.63    0.00    0.00    0.00    0.00   39.02    0.80    1.62    0.63    0.00    0.00    0.00    0.00    0.00     0.01    0.00    0.00    0.00    0.00
  172    1.30    0.19    0.00    0.00    0.00    0.00   39.30    1.04    2.69    0.19    0.00    0.00    0.00    0.00    0.00     0.01    0.00    0.00    0.00    0.00
  173    0.20    0.03    0.00    0.00    0.00    0.00   39.50    0.00    3.03    0.03    0.00    0.00    0.00    0.00    0.00     0.01    0.00    0.00    0.00    0.00
  174    2.60    0.37    0.00    0.00    0.00    0.00   41.88    0.51    1.04    0.37    0.00    0.00    0.00    0.00    0.00     0.01    0.00    0.00    0.00    0.00
  175    0.00    0.00    0.00    0.00    0.00    0.00   41.88    0.00    7.05    0.00    0.00    0.00    0.00    0.00    0.00     0.01    0.00    0.00    0.00    0.00
  176    0.00    0.00    0.00    0.00    0.00    0.00   41.88    0.00    9.43    0.00    0.00    0.00    0.00    0.00    0.00     0.01    0.00    0.00    0.00    0.00
  177    1.70    0.24    0.00    0.00    0.00    0.00   43.12    0.45    0.91    0.24    0.00    0.00    0.00    0.00    0.00     0.01    0.00    0.00    0.00    0.00
  178    0.00    0.00    0.00    0.00    0.00    0.00   43.12    0.00    8.85    0.00    0.00    0.00    0.00    0.00    0.00     0.01    0.00    0.00    0.00    0.00
  179    0.00    0.00    0.00    0.00    0.00    0.00   43.12    0.00    7.28    0.00    0.00    0.00    0.00    0.00    0.00     0.01    0.00    0.00    0.00    0.00
  180    1.10    0.16    0.00    0.00    0.00    0.00   44.21    0.00    0.54    0.16    0.00    0.00    0.00    0.00    0.00     0.01    0.00    0.00    0.00    0.00
  181    0.30    0.04    0.00    0.00    0.00    0.00   43.48    1.04    2.23    0.04    0.00    0.00    0.00    0.00    0.00     0.01    0.00    0.00    0.00    0.00
    6   57.40   14.25    0.04    0.00    0.00    0.00   43.48   37.95  180.22   14.28    0.00    0.00    0.00    0.00    0.00     0.13    0.00    0.02    0.00    0.00
  182   13.10    1.87    0.00    0.00    0.00    0.00   55.45    0.30    0.61    1.87    0.00    0.00    0.00    0.00    0.00     0.03    0.00    0.00    0.00    0.00
  183    2.00    0.28    0.00    0.00    0.00    0.00   56.94    0.49    1.00    0.29    0.00    0.00    0.00    0.00    0.00     0.03    0.00    0.00    0.00    0.00
  184    1.40    0.20    0.00    0.00    0.00    0.00   58.34    0.00    0.63    0.20    0.00    0.00    0.00    0.00    0.00     0.03    0.00    0.00    0.00    0.00
  185    0.70    0.10    0.00    0.00    0.00    0.00   58.12    0.93    1.89    0.10    0.00    0.00    0.00    0.00    0.00     0.03    0.00    0.00    0.00    0.00
  186    0.00    0.00    0.00    0.00    0.00    0.00   58.12    0.00    8.47    0.00    0.00    0.00    0.00    0.00    0.00     0.02    0.00    0.00    0.00    0.00
  187    0.00    0.00    0.00    0.00    0.00    0.00   58.12    0.00    9.50    0.00    0.00    0.00    0.00    0.00    0.00     0.02    0.00    0.00    0.00    0.00
  188    0.00    0.00    0.00    0.00    0.00    0.00   58.12    0.00    8.80    0.00    0.00    0.00    0.00    0.00    0.00     0.01    0.00    0.00    0.00    0.00
  189    0.00    0.00    0.00    0.00    0.00    0.00   58.12    0.00    7.76    0.00    0.00    0.00    0.00    0.00    0.00     0.01    0.00    0.00    0.00    0.00
  190    1.20    0.17    0.00    0.00    0.00    0.00   58.27    1.04    3.92    0.17    0.00    0.00    0.00    0.00    0.00     0.01    0.00    0.00    0.00    0.00
  191    0.40    0.06    0.00    0.00    0.00    0.00   58.68    0.00    2.13    0.06    0.00    0.00    0.00    0.00    0.00     0.01    0.00    0.00    0.00    0.00
  192    0.00    0.00    0.00    0.00    0.00    0.00   58.68    0.00    9.40    0.00    0.00    0.00    0.00    0.00    0.00     0.01    0.00    0.00    0.00    0.00
  193    2.00    0.28    0.00    0.00    0.00    0.00   60.17    0.54    1.09    0.29    0.00    0.00    0.00    0.00    0.00     0.01    0.00    0.00    0.00    0.00
  194   12.30    1.75    0.00    0.00    0.00    0.00   71.36    0.49    0.99    1.75    0.00    0.00    0.00    0.00    0.00     0.04    0.00    0.00    0.00    0.00
  195   21.20    3.02    0.00    0.00    0.00    0.00   90.93    0.00    0.73    3.02    0.00    0.00    0.00    0.00    0.00     0.09    0.00    0.01    0.00    0.00
  196    8.40    1.30    0.00    0.00    0.00    0.00   97.96    1.04    2.10    1.30    0.00    0.00    0.00    0.00    0.00     0.10    0.00    0.01    0.00    0.00
  197   16.70    3.87    0.00    0.00    0.00    0.00  110.19    1.04    2.70    3.19    0.00    0.00    0.00    0.00    0.00     0.15    0.00    0.02    0.00    0.00
  198   15.50    2.28    0.00    0.00    0.00    0.00  124.00    0.89    1.80    2.97    0.00    0.00    0.00    0.00    0.00     0.17    0.00    0.02    0.00    0.00
  199    0.00    0.00    0.00    0.00    0.00    0.00  124.00    0.00    8.10    0.00    0.00    0.00    0.00    0.00    0.00     0.14    0.00    0.02    0.00    0.00
  200    0.00    0.00    0.00    0.00    0.00    0.00  124.00    0.00    6.29    0.00    0.00    0.00    0.00    0.00    0.00     0.11    0.00    0.01    0.00    0.00
  201    0.00    0.00    0.00    0.00    0.00    0.00  124.00    0.00    6.64    0.00    0.00    0.00    0.00    0.00    0.00     0.09    0.00    0.01    0.00    0.00
  202    0.00    0.00    0.00    0.00    0.00    0.00  124.00    0.00    5.79    0.00    0.00    0.00    0.00    0.00    0.00     0.08    0.00    0.01    0.00    0.00
  203    0.00    0.00    0.00    0.00    0.00    0.00  124.00    0.00    4.60    0.00    0.00    0.00    0.00    0.00    0.00     0.06    0.00    0.01    0.00    0.00
  204    0.00    0.00    0.00    0.00    0.00    0.00  124.00    0.00    8.69    0.00    0.00    0.00    0.00    0.00    0.00     0.05    0.00    0.01    0.00    0.00
  205    0.00    0.00    0.00    0.00    0.00    0.00  124.00    0.00    6.99    0.00    0.00    0.00    0.00    0.00    0.00     0.04    0.00    0.01    0.00    0.00
  206   26.90    8.33    0.00    0.00    0.00    0.00  142.75    0.93    1.88    8.33    0.00    0.00    0.00    0.00    0.00     0.22    0.00    0.03    0.00    0.00
  207    0.00    0.00    0.00    0.00    0.00    0.00  142.75    0.00    5.85    0.00    0.00    0.00    0.00    0.00    0.00     0.18    0.00    0.02    0.00    0.00
  208    0.00    0.00    0.00    0.00    0.00    0.00  142.75    0.00    6.75    0.00    0.00    0.00    0.00    0.00    0.00     0.15    0.00    0.02    0.00    0.00
  209    0.90    0.13    0.00    0.00    0.00    0.00  143.67    0.00    2.28    0.13    0.00    0.00    0.00    0.00    0.00     0.12    0.00    0.02    0.00    0.00
  210   47.20   15.54    0.00    0.00    0.00    0.00  176.13    1.04    2.49   15.54    0.01    0.00    0.00    0.00    0.00     0.47    0.00    0.06    0.00    0.00
  211    0.00    0.00    0.00    0.00    0.00    0.00  176.13    0.00   10.99    0.01    0.00    0.00    0.00    0.00    0.00     0.39    0.00    0.05    0.00    0.00
  212    6.30    0.90    0.00    0.00    0.00    0.00  182.38    0.00    1.68    0.90    0.00    0.00    0.00    0.00    0.00     0.34    0.00    0.04    0.00    0.00
    7  176.20   40.08    0.06    0.00    0.00    0.00  182.38    8.73  142.56   40.14    0.02    0.00    0.00    0.00    0.00     3.22    0.01    0.40    0.00    0.00
  213    2.70    0.38    0.00    0.00    0.00    0.00  185.37    0.00    3.03    0.39    0.00    0.00    0.00    0.00    0.00     0.28    0.00    0.04    0.00    0.00
  214    0.00    0.00    0.00    0.00    0.00    0.00  185.37    0.00    8.91    0.00    0.00    0.00    0.00    0.00    0.00     0.23    0.00    0.03    0.00    0.00
  215    0.00    0.00    0.00    0.00    0.00    0.00  185.37    0.00    8.92    0.00    0.00    0.00    0.00    0.00    0.00     0.19    0.00    0.02    0.00    0.00
  216    0.00    0.00    0.00    0.00    0.00    0.00  185.37    0.00    6.72    0.00    0.00    0.00    0.00    0.00    0.00     0.16    0.00    0.02    0.00    0.00
  217    1.20    0.17    0.00    0.00    0.00    0.00  185.51    1.04    5.19    0.17    0.00    0.00    0.00    0.00    0.00     0.13    0.00    0.02    0.00    0.00
  218    0.00    0.00    0.00    0.00    0.00    0.00  185.51    0.00    7.24    0.00    0.00    0.00    0.00    0.00    0.00     0.11    0.00    0.01    0.00    0.00
  219    0.00    0.00    0.00    0.00    0.00    0.00  185.51    0.00    7.46    0.00    0.00    0.00    0.00    0.00    0.00     0.09    0.00    0.01    0.00    0.00
  220    0.80    0.11    0.00    0.00    0.00    0.00  186.31    0.00    3.07    0.12    0.00    0.00    0.00    0.00    0.00     0.08    0.00    0.01    0.00    0.00
  221    1.00    0.14    0.00    0.00    0.00    0.00  186.23    1.04    3.07    0.15    0.00    0.00    0.00    0.00    0.00     0.07    0.00    0.01    0.00    0.00
  222    8.60    3.87    0.00    0.00    0.00    0.00  191.46    0.00    3.02    3.73    0.00    0.00    0.00    0.00    0.00     0.14    0.00    0.02    0.00    0.00
  223    1.00    0.14    0.00    0.00    0.00    0.00  191.43    1.04    3.44    0.29    0.00    0.00    0.00    0.00    0.00     0.12    0.00    0.01    0.00    0.00
  224    0.10    0.01    0.00    0.00    0.00    0.00  191.54    0.00    2.34    0.02    0.00    0.00    0.00    0.00    0.00     0.10    0.00    0.01    0.00    0.00
  225    0.00    0.00    0.00    0.00    0.00    0.00  191.54    0.00    5.94    0.00    0.00    0.00    0.00    0.00    0.00     0.08    0.00    0.01    0.00    0.00
  226    0.00    0.00    0.00    0.00    0.00    0.00  191.54    0.00    9.15    0.00    0.00    0.00    0.00    0.00    0.00     0.07    0.00    0.01    0.00    0.00
  227    0.00    0.00    0.00    0.00    0.00    0.00  191.54    0.00   10.09    0.00    0.00    0.00    0.00    0.00    0.00     0.05    0.00    0.01    0.00    0.00
  228    0.00    0.00    0.00    0.00    0.00    0.00  191.54    0.00    9.79    0.00    0.00    0.00    0.00    0.00    0.00     0.05    0.00    0.01    0.00    0.00
  229    3.80    1.00    0.00    0.00    0.00    0.00  193.78    0.87    1.75    0.79    0.00    0.00    0.00    0.00    0.00     0.06    0.00    0.01    0.00    0.00
  230    1.10    0.16    0.00    0.00    0.00    0.00  193.86    1.04    2.82    0.37    0.00    0.00    0.00    0.00    0.00     0.05    0.00    0.01    0.00    0.00
  231    0.20    0.03    0.00    0.00    0.00    0.00  194.06    0.00    2.94    0.03    0.00    0.00    0.00    0.00    0.00     0.04    0.00    0.01    0.00    0.00
  232    0.00    0.00    0.00    0.00    0.00    0.00  194.06    0.00    5.01    0.00    0.00    0.00    0.00    0.00    0.00     0.03    0.00    0.00    0.00    0.00
  233    0.20    0.03    0.00    0.00    0.00    0.00  194.26    0.00    2.78    0.03    0.00    0.00    0.00    0.00    0.00     0.03    0.00    0.00    0.00    0.00
  234    0.00    0.00    0.00    0.00    0.00    0.00  194.26    0.00   10.28    0.00    0.00    0.00    0.00    0.00    0.00     0.02    0.00    0.00    0.00    0.00
  235    9.10    3.80    0.00    0.00    3.44    0.00  195.01    1.48    2.85    2.84    0.00    0.00    0.00    0.00    0.00     0.10    0.00    0.01    0.00    0.00
  236    0.40    0.06    0.00    0.00    0.29    0.00  194.09    1.03    1.98    1.02    0.00    0.00    0.00    0.00    0.00     0.09    0.00    0.01    0.00    0.00
  237    0.70    0.10    0.00    0.00    0.00    0.00  193.78    1.02    2.05    0.10    0.00    0.00    0.00    0.00    0.00     0.07    0.00    0.01    0.00    0.00
  238    6.40    0.91    0.00    0.00    3.56    0.00  194.95    1.59    3.06    0.91    0.00    0.00    0.00    0.00    0.00     0.08    0.00    0.01    0.00    0.00
  239   24.30    6.14    0.00    0.00   13.78    0.00  198.20    2.78    3.34    6.15    0.00    0.00    0.00    0.00    0.00     0.23    0.00    0.03    0.00    0.00
  240    0.00    0.00    0.00    0.00    2.95    0.00  191.90    3.34    6.41    0.00    0.00    0.00    0.00    0.00    0.00     0.19    0.00    0.02    0.00    0.00
  241    0.00    0.00    0.00    0.00    0.00    0.00  191.90    0.00    6.96    0.00    0.00    0.00    0.00    0.00    0.00     0.15    0.00    0.02    0.00    0.00
  242    0.00    0.00    0.00    0.00    0.00    0.00  191.90    0.00   11.99    0.00    0.00    0.00    0.00    0.00    0.00     0.13    0.00    0.02    0.00    0.00
  243    0.00    0.00    0.00    0.00    0.00    0.00  191.90    0.00    8.24    0.01    0.00    0.00    0.00    0.00    0.00     0.10    0.00    0.01    0.00    0.00
    8   61.60   17.07    0.08    0.00   24.02    0.00  191.90   16.28  169.83   17.15    0.01    0.00    0.00    0.00    0.00     3.33    0.01    0.41    0.00    0.00
  244    0.00    0.00    0.00    0.00    0.00    0.00  191.90    0.00    7.73    0.01    0.00    0.00    0.00    0.00    0.00     0.09    0.00    0.01    0.00    0.00
  245    0.00    0.00    0.00    0.00    0.00    0.00  191.90    0.00    6.34    0.01    0.00    0.00    0.00    0.00    0.00     0.07    0.00    0.01    0.00    0.00
  246    0.00    0.00    0.00    0.00    0.00    0.00  191.90    0.00    5.84    0.01    0.00    0.00    0.00    0.00    0.00     0.06    0.00    0.01    0.00    0.00
  247   12.80    1.82    0.00    0.00    6.20    0.00  196.79    0.90    0.91    1.83    0.00    0.00    0.00    0.00    0.00     0.09    0.00    0.01    0.00    0.00
  248    3.30    0.47    0.00    0.00    3.72    0.00  195.39    1.22    2.34    0.48    0.00    0.00    0.00    0.00    0.00     0.09    0.00    0.01    0.00    0.00
  249    0.00    0.00    0.00    0.00    0.27    0.00  192.03    3.09    5.92    0.01    0.00    0.00    0.00    0.00    0.00     0.07    0.00    0.01    0.00    0.00
  250    0.30    0.04    0.00    0.00    0.00    0.00  191.29    1.04    3.79    0.05    0.00    0.00    0.00    0.00    0.00     0.06    0.00    0.01    0.00    0.00
  251    0.00    0.00    0.00    0.00    0.00    0.00  191.29    0.00    6.40    0.01    0.00    0.00    0.00    0.00    0.00     0.05    0.00    0.01    0.00    0.00
  252    0.00    0.00    0.00    0.00    0.00    0.00  191.29    0.00    7.23    0.01    0.00    0.00    0.00    0.00    0.00     0.04    0.00    0.00    0.00    0.00
  253    0.50    0.07    0.00    0.00    0.00    0.00  191.80    0.00    3.59    0.08    0.00    0.00    0.00    0.00    0.00     0.03    0.00    0.00    0.00    0.00
  254   93.00   52.59    0.00    0.00   27.40    0.00  205.19    1.70    3.27   52.58    0.09    0.00    0.00    0.00    0.00     1.83    0.00    0.23    0.00    0.00
  255    0.10    0.01    0.00    0.00    7.16    0.00  195.71    2.40    2.61    0.04    0.00    0.00    0.00    0.00    0.00     1.51    0.00    0.19    0.00    0.00
  256    2.10    0.30    0.00    0.00    2.03    0.00  194.05    1.83    1.84    0.31    0.00    0.00    0.00    0.00    0.00     1.25    0.00    0.15    0.00    0.00
  257    0.00    0.00    0.00    0.00    0.00    0.00  194.05    0.00    5.10    0.01    0.00    0.00    0.00    0.00    0.00     1.03    0.00    0.13    0.00    0.00
  258    1.50    0.21    0.00    0.00    0.59    0.00  194.19    1.06    2.04    0.23    0.00    0.00    0.00    0.00    0.00     0.85    0.00    0.11    0.00    0.00
  259    0.00    0.00    0.00    0.00    0.00    0.00  194.19    0.00    6.75    0.01    0.00    0.00    0.00    0.00    0.00     0.70    0.00    0.09    0.00    0.00
  260    0.00    0.00    0.00    0.00    0.00    0.00  194.19    0.00    7.42    0.02    0.00    0.00    0.00    0.00    0.00     0.58    0.00    0.07    0.00    0.00
  261    0.80    0.11    0.00    0.00    0.00    0.00  194.05    0.95    0.95    0.13    0.00    0.00    0.00    0.00    0.00     0.48    0.00    0.06    0.00    0.00
  262    0.00    0.00    0.00    0.00    0.00    0.00  194.05    0.00    6.10    0.02    0.00    0.00    0.00    0.00    0.00     0.39    0.00    0.05    0.00    0.00
  263    6.10    0.87    0.00    0.00    3.82    0.00  194.41    2.24    2.31    0.89    0.00    0.00    0.00    0.00    0.00     0.34    0.00    0.04    0.00    0.00
  264    0.00    0.00    0.00    0.00    0.32    0.00  190.77    3.33    6.38    0.02    0.00    0.00    0.00    0.00    0.00     0.28    0.00    0.04    0.00    0.00
  265    0.00    0.00    0.00    0.00    0.00    0.00  190.77    0.00    6.89    0.02    0.00    0.00    0.00    0.00    0.00     0.23    0.00    0.03    0.00    0.00
  266    0.00    0.00    0.00    0.06    0.00    0.00  190.77    0.00    6.07    0.08    0.00    0.00    0.00    0.00    0.00     0.19    0.00    0.02    0.00    0.00
  267    0.00    0.00    0.00    0.12    0.00    0.00  190.77    0.00    6.92    0.14    0.00    0.00    0.00    0.00    0.00     0.16    0.00    0.02    0.00    0.00
  268    2.30    0.33    0.00    0.18    0.00    0.00  192.23    1.04    2.87    0.52    0.00    0.00    0.00    0.00    0.00     0.14    0.00    0.02    0.00    0.00
  269    2.50    0.36    0.00    0.22    0.00    0.00  193.72    1.04    2.42    0.60    0.00    0.00    0.00    0.00    0.00     0.12    0.00    0.01    0.00    0.00
  270    6.70    0.95    0.00    0.27    3.80    0.00  193.32    3.33    4.39    1.25    0.00    0.00    0.00    0.00    0.00     0.12    0.00    0.02    0.00    0.00
  271    0.30    0.04    0.00    0.32    0.00    0.00  193.62    0.00    3.75    0.39    0.00    0.00    0.00    0.00    0.00     0.10    0.00    0.01    0.00    0.00
  272   12.40    4.94    0.00    0.37    4.87    0.00  195.32    1.79    3.44    4.51    0.00    0.00    0.00    0.00    0.00     0.21    0.00    0.03    0.00    0.00
  273    4.60    0.66    0.00    0.42    3.55    0.00  194.36    2.18    2.19    1.91    0.00    0.00    0.00    0.00    0.00     0.19    0.00    0.02    0.00    0.00
    9  149.30   63.78    0.12    1.97   63.74    0.00  194.36   29.15  133.78   66.16    0.10    0.00    0.00    0.01    0.00    11.35    0.01    1.40    0.00    0.00
  274    0.00    0.00    0.00    0.47    0.28    0.00  190.14    3.94    7.54    0.49    0.00    0.00    0.00    0.00    0.00     0.16    0.00    0.02    0.00    0.00
  275    8.80    1.71    0.00    0.51    2.30    0.00  194.68    1.32    2.53    2.25    0.00    0.00    0.00    0.00    0.00     0.17    0.00    0.02    0.00    0.00
  276    0.80    0.11    0.00    0.55    0.34    0.00  192.91    2.24    2.30    0.69    0.00    0.00    0.00    0.00    0.00     0.14    0.00    0.02    0.00    0.00
  277   31.80    5.60    0.01    0.61   18.27    0.00  201.18    1.75    1.76    6.08    0.00    0.00    0.00    0.00    0.00     0.27    0.00    0.03    0.00    0.00
  278  129.20   80.20    0.01    0.73   40.17    0.00  210.77    1.66    3.18   54.97    0.06    0.00    0.00    0.01    0.00     2.62    0.00    0.32    0.00    0.00
  279   44.30   21.45    0.01    0.87   28.19    0.00  205.69    1.54    2.96   48.49    0.17    0.00    0.00    0.00    0.00     2.96    0.00    0.37    0.00    0.00
  280   11.40    5.43    0.01    1.02   12.18    0.00  198.74    1.55    1.55    6.49    0.01    0.00    0.00    0.00    0.00     2.56    0.00    0.32    0.00    0.00
  281    3.90    0.56    0.01    1.16    5.48    0.00  196.66    0.72    1.37    1.76    0.00    0.00    0.00    0.00    0.00     2.12    0.00    0.26    0.00    0.00
  282    0.00    0.00    0.01    1.30    1.16    0.00  192.17    3.33    6.38    1.33    0.00    0.00    0.00    0.00    0.00     1.75    0.00    0.22    0.00    0.00
  283    0.00    0.00    0.01    1.42    0.00    0.00  192.17    0.00    6.89    1.46    0.00    0.00    0.00    0.00    0.00     1.44    0.00    0.18    0.00    0.00
  284    0.00    0.00    0.01    1.52    0.00    0.00  192.17    0.00    5.88    1.57    0.00    0.00    0.00    0.00    0.00     1.18    0.00    0.15    0.00    0.00
  285    0.00    0.00    0.01    1.62    0.00    0.00  192.17    0.00    6.91    1.67    0.00    0.00    0.00    0.00    0.00     0.98    0.00    0.12    0.00    0.00
  286    1.50    0.21    0.01    1.71    0.00    0.00  192.85    0.84    1.68    1.97    0.00    0.00    0.00    0.00    0.00     0.81    0.00    0.10    0.00    0.00
  287   21.40    7.56    0.01    1.80    8.98    0.00  196.84    2.06    2.07    7.74    0.00    0.00    0.00    0.00    0.00     0.82    0.00    0.10    0.00    0.00
  288   44.60    6.58    0.01    1.93   30.42    0.00  207.24    0.96    1.84   10.23    0.01    0.00    0.00    0.00    0.00     0.85    0.00    0.10    0.00    0.00
  289   29.80    7.51    0.01    2.08   25.51    0.00  204.85    1.22    2.34    9.63    0.01    0.00    0.00    0.00    0.00     0.87    0.00    0.11    0.00    0.00
  290    0.00    0.00    0.01    2.22    6.86    0.00  195.29    2.69    5.15    2.27    0.00    0.00    0.00    0.00    0.00     0.72    0.00    0.09    0.00    0.00
  291    0.00    0.00    0.01    2.35    0.20    0.00  191.92    3.17    6.06    2.41    0.00    0.00    0.00    0.00    0.00     0.59    0.00    0.07    0.00    0.00
  292    0.00    0.00    0.01    2.46    0.00    0.00  191.92    0.00    7.07    2.52    0.00    0.00    0.00    0.00    0.00     0.49    0.00    0.06    0.00    0.00
  293    0.00    0.00    0.01    2.57    0.00    0.00  191.92    0.00    8.43    2.63    0.00    0.00    0.00    0.00    0.00     0.40    0.00    0.05    0.00    0.00
  294    0.40    0.06    0.01    2.66    0.00    0.00  192.32    0.00    1.90    2.78    0.00    0.00    0.00    0.00    0.00     0.33    0.00    0.04    0.00    0.00
  295    0.00    0.00    0.01    2.74    0.00    0.00  192.32    0.00    8.78    2.80    0.00    0.00    0.00    0.00    0.00     0.27    0.00    0.03    0.00    0.00
  296   35.80   13.99    0.01    2.83   14.90    0.00  198.22    3.25    4.23   16.84    0.02    0.00    0.00    0.00    0.00     0.57    0.00    0.07    0.00    0.00
  297   15.60    3.44    0.01    2.93   11.88    0.00  197.60    2.56    2.90    6.04    0.00    0.00    0.00    0.00    0.00     0.54    0.00    0.07    0.00    0.00
  298   37.60   18.01    0.01    3.04   16.45    0.00  200.48    1.66    3.17   21.56    0.03    0.00    0.00    0.00    0.00     0.89    0.00    0.11    0.00    0.00
  299   14.40    2.44    0.01    3.15   13.12    0.00  198.26    2.43    2.66    5.66    0.00    0.00    0.00    0.00    0.00     0.78    0.00    0.10    0.00    0.00
  300    0.00    0.00    0.01    3.25    2.99    0.00  192.14    3.12    5.96    3.34    0.00    0.00    0.00    0.00    0.00     0.64    0.00    0.08    0.00    0.00
  301    0.00    0.00    0.01    3.35    0.00    0.00  192.14    0.00    7.73    3.42    0.00    0.00    0.00    0.00    0.00     0.53    0.00    0.07    0.00    0.00
  302    0.00    0.00    0.01    3.43    0.00    0.00  192.14    0.00    6.77    3.51    0.00    0.00    0.00    0.00    0.00     0.44    0.00    0.05    0.00    0.00
  303    0.00    0.00    0.01    3.49    0.00    0.00  192.14    0.00    6.34    3.58    0.00    0.00    0.00    0.00    0.00     0.36    0.00    0.04    0.00    0.00
  304    0.00    0.00    0.01    3.55    0.00    0.00  192.14    0.00    6.64    3.64    0.00    0.00    0.00    0.00    0.00     0.30    0.00    0.04    0.00    0.00
   10  431.30  174.86    0.31   63.31  239.67    0.00  192.14   41.99  140.96  239.81    0.31    0.00    0.00    0.04    0.00    27.54    0.03    3.40    0.00    0.00
  305    0.00    0.00    0.01    3.60    0.00    0.00  192.14    0.00    6.94    3.69    0.00    0.00    0.00    0.00    0.00     0.24    0.00    0.03    0.00    0.00
  306    5.00    0.71    0.01    3.64    1.52    0.00  194.00    1.66    1.66    4.44    0.00    0.00    0.00    0.00    0.00     0.21    0.00    0.03    0.00    0.00
  307    3.10    0.44    0.01    3.68    1.49    0.00  193.09    2.56    2.90    4.21    0.00    0.00    0.00    0.00    0.00     0.18    0.00    0.02    0.00    0.00
  308    3.20    0.46    0.01    3.70    0.93    0.00  193.16    2.25    2.31    4.25    0.00    0.00    0.00    0.00    0.00     0.16    0.00    0.02    0.00    0.00
  309    1.50    0.21    0.01    3.72    0.00    0.00  193.64    1.04    2.19    4.03    0.00    0.00    0.00    0.00    0.00     0.13    0.00    0.02    0.00    0.00
  310   17.70    3.16    0.01    3.75   10.83    0.00  197.01    2.69    3.15    7.00    0.00    0.00    0.00    0.00    0.00     0.18    0.00    0.02    0.00    0.00
  311    0.90    0.13    0.01    3.78    2.22    0.00  194.88    0.81    1.55    4.00    0.00    0.00    0.00    0.00    0.00     0.15    0.00    0.02    0.00    0.00
  312   17.10    3.03    0.01    3.81   10.90    0.00  197.21    2.52    2.83    6.66    0.00    0.00    0.00    0.00    0.00     0.18    0.00    0.02    0.00    0.00
  313    4.30    0.61    0.01    3.84    4.57    0.00  195.61    1.38    2.63    4.82    0.00    0.00    0.00    0.00    0.00     0.16    0.00    0.02    0.00    0.00
  314    0.00    0.00    0.01    3.86    0.42    0.00  191.48    3.70    7.07    3.96    0.00    0.00    0.00    0.00    0.00     0.13    0.00    0.02    0.00    0.00
  315    0.00    0.00    0.01    3.88    0.00    0.00  191.48    0.00    6.09    3.98    0.00    0.00    0.00    0.00    0.00     0.11    0.00    0.01    0.00    0.00
  316    0.00    0.00    0.01    3.89    0.00    0.00  191.48    0.00    6.70    3.99    0.00    0.00    0.00    0.00    0.00     0.09    0.00    0.01    0.00    0.00
  317    0.00    0.00    0.01    3.89    0.00    0.00  191.48    0.00    5.88    3.99    0.00    0.00    0.00    0.00    0.00     0.08    0.00    0.01    0.00    0.00
  318    0.00    0.00    0.01    3.88    0.00    0.00  191.48    0.00    5.63    3.99    0.00    0.00    0.00    0.00    0.00     0.06    0.00    0.01    0.00    0.00
  319  108.40   68.32    0.01    3.91   26.60    0.00  205.37    1.17    2.24   62.31    0.11    0.00    0.00    0.00    0.00     1.84    0.00    0.23    0.00    0.00
  320    2.90    0.41    0.01    3.94    9.45    0.00  196.88    2.22    2.25   14.49    0.08    0.00    0.00    0.00    0.00     1.54    0.00    0.19    0.00    0.00
  321    0.00    0.00    0.01    3.97    2.04    0.00  191.14    3.70    7.07    4.08    0.00    0.00    0.00    0.00    0.00     1.27    0.00    0.16    0.00    0.00
  322   15.30    6.50    0.01    4.00    4.11    0.00  195.31    1.48    1.48   10.58    0.01    0.00    0.00    0.00    0.00     1.17    0.00    0.14    0.00    0.00
  323    0.00    0.00    0.01    4.02    0.73    0.00  191.12    3.46    6.61    4.15    0.00    0.00    0.00    0.00    0.00     0.96    0.00    0.12    0.00    0.00
  324    0.00    0.00    0.01    4.03    0.00    0.00  191.12    0.00    5.80    4.14    0.00    0.00    0.00    0.00    0.00     0.79    0.00    0.10    0.00    0.00
  325   41.00   17.14    0.01    4.05   15.40    0.00  199.36    2.32    2.44   20.02    0.02    0.00    0.00    0.00    0.00     1.00    0.00    0.12    0.00    0.00
  326   26.30   10.42    0.01    4.09   15.33    0.00  200.57    1.08    1.08   15.91    0.03    0.00    0.00    0.00    0.00     1.03    0.00    0.13    0.00    0.00
  327    0.20    0.03    0.01    4.13    4.28    0.00  195.39    1.10    2.11    4.29    0.00    0.00    0.00    0.00    0.00     0.85    0.00    0.10    0.00    0.00
  328    0.00    0.00    0.01    4.16    0.53    0.00  191.27    3.58    6.85    4.28    0.00    0.00    0.00    0.00    0.00     0.70    0.00    0.09    0.00    0.00
  329    0.00    0.00    0.01    4.18    0.00    0.00  191.27    0.00    7.00    4.30    0.00    0.00    0.00    0.00    0.00     0.58    0.00    0.07    0.00    0.00
  330    0.00    0.00    0.01    4.19    0.00    0.00  191.27    0.00    6.31    4.31    0.00    0.00    0.00    0.00    0.00     0.48    0.00    0.06    0.00    0.00
  331    0.00    0.00    0.01    4.20    0.00    0.00  191.27    0.00    7.52    4.32    0.00    0.00    0.00    0.00    0.00     0.39    0.00    0.05    0.00    0.00
  332    0.00    0.00    0.01    4.20    0.00    0.00  191.27    0.00    7.50    4.32    0.00    0.00    0.00    0.00    0.00     0.32    0.00    0.04    0.00    0.00
  333    0.00    0.00    0.01    4.19    0.00    0.00  191.27    0.00    6.07    4.31    0.00    0.00    0.00    0.00    0.00     0.27    0.00    0.03    0.00    0.00
  334    0.00    0.00    0.01    4.17    0.00    0.00  191.27    0.00    6.21    4.30    0.00    0.00    0.00    0.00    0.00     0.22    0.00    0.03    0.00    0.00
   11  246.90  111.57    0.37  118.35  111.35    0.00  191.27   38.71  136.09  233.11    0.25    0.00    0.00    0.02    0.00    15.50    0.01    1.91    0.00    0.00
  335   17.70    8.11    0.01    4.16    5.09    0.00  195.83    1.38    1.38   12.08    0.01    0.00    0.00    0.00    0.00     0.33    0.00    0.04    0.00    0.00
  336    0.00    0.00    0.01    4.15    1.06    0.00  191.63    3.14    6.00    4.60    0.00    0.00    0.00    0.00    0.00     0.27    0.00    0.03    0.00    0.00
  337    0.00    0.00    0.01    4.13    0.00    0.00  191.63    0.00    6.29    4.26    0.00    0.00    0.00    0.00    0.00     0.22    0.00    0.03    0.00    0.00
  338    0.00    0.00    0.01    4.10    0.00    0.00  191.63    0.00    5.42    4.23    0.00    0.00    0.00    0.00    0.00     0.18    0.00    0.02    0.00    0.00
  339    0.00    0.00    0.01    4.07    0.00    0.00  191.63    0.00    5.32    4.20    0.00    0.00    0.00    0.00    0.00     0.15    0.00    0.02    0.00    0.00
  340    0.00    0.00    0.01    4.04    0.00    0.00  191.63    0.00    4.85    4.17    0.00    0.00    0.00    0.00    0.00     0.13    0.00    0.02    0.00    0.00
  341    0.00    0.00    0.01    4.01    0.00    0.00  191.63    0.00    5.44    4.13    0.00    0.00    0.00    0.00    0.00     0.10    0.00    0.01    0.00    0.00
  342    0.00    0.00    0.01    3.97    0.00    0.00  191.63    0.00    5.97    4.10    0.00    0.00    0.00    0.00    0.00     0.08    0.00    0.01    0.00    0.00
  343    0.00    0.00    0.01    3.92    0.00    0.00  191.63    0.00    5.22    4.05    0.00    0.00    0.00    0.00    0.00     0.07    0.00    0.01    0.00    0.00
  344    0.00    0.00    0.01    3.88    0.00    0.00  191.63    0.00    6.36    4.01    0.00    0.00    0.00    0.00    0.00     0.06    0.00    0.01    0.00    0.00
  345    0.00    0.00    0.01    3.83    0.00    0.00  191.63    0.00    4.73    3.96    0.00    0.00    0.00    0.00    0.00     0.05    0.00    0.01    0.00    0.00
  346    0.00    0.00    0.01    3.78    0.00    0.00  191.63    0.00    4.93    3.91    0.00    0.00    0.00    0.00    0.00     0.04    0.00    0.00    0.00    0.00
  347    0.00    0.00    0.01    3.73    0.00    0.00  191.63    0.00    4.82    3.86    0.00    0.00    0.00    0.00    0.00     0.03    0.00    0.00    0.00    0.00
  348    0.00    0.00    0.01    3.68    0.00    0.00  191.63    0.00    5.19    3.81    0.00    0.00    0.00    0.00    0.00     0.03    0.00    0.00    0.00    0.00
  349    0.00    0.00    0.01    3.62    0.00    0.00  191.63    0.00    4.73    3.76    0.00    0.00    0.00    0.00    0.00     0.02    0.00    0.00    0.00    0.00
  350    0.00    0.00    0.01    3.57    0.00    0.00  191.63    0.00    5.41    3.70    0.00    0.00    0.00    0.00    0.00     0.02    0.00    0.00    0.00    0.00
  351    0.80    0.11    0.01    3.51    0.00    0.00  192.45    0.00    2.18    3.76    0.00    0.00    0.00    0.00    0.00     0.02    0.00    0.00    0.00    0.00
  352   29.00   10.10    0.01    3.47   12.43    0.00  198.48    1.92    1.92   13.70    0.02    0.00    0.00    0.00    0.00     0.21    0.00    0.03    0.00    0.00
  353    0.00    0.00    0.01    3.44    3.09    0.00  192.70    2.68    5.11    3.57    0.00    0.00    0.00    0.00    0.00     0.17    0.00    0.02    0.00    0.00
  354    7.10    1.01    0.01    3.40    3.14    0.00  195.42    0.94    1.80    4.54    0.00    0.00    0.00    0.00    0.00     0.16    0.00    0.02    0.00    0.00
  355   69.90   22.33    0.01    3.41   36.21    0.00  209.70    1.02    1.94   23.80    0.02    0.00    0.00    0.01    0.00     0.57    0.00    0.07    0.00    0.00
  356   43.70   15.01    0.01    3.47   31.61    0.00  207.22    1.50    1.50   17.42    0.02    0.00    0.00    0.00    0.00     0.75    0.00    0.09    0.00    0.00
  357   18.40    4.84    0.01    3.54   19.34    0.00  202.03    1.36    1.37   11.77    0.02    0.00    0.00    0.00    0.00     0.71    0.00    0.09    0.00    0.00
  358    7.40    1.05    0.01    3.61   10.11    0.00  197.68    1.71    1.72    4.81    0.00    0.00    0.00    0.00    0.00     0.60    0.00    0.07    0.00    0.00
  359    0.00    0.00    0.01    3.68    2.46    0.00  192.45    2.76    5.27    3.82    0.00    0.00    0.00    0.00    0.00     0.50    0.00    0.06    0.00    0.00
  360    0.00    0.00    0.01    3.73    0.00    0.00  192.45    0.00    5.99    3.88    0.00    0.00    0.00    0.00    0.00     0.41    0.00    0.05    0.00    0.00
  361    0.00    0.00    0.01    3.78    0.00    0.00  192.45    0.00    4.88    3.92    0.00    0.00    0.00    0.00    0.00     0.34    0.00    0.04    0.00    0.00
  362    0.00    0.00    0.01    3.82    0.00    0.00  192.45    0.00    6.58    3.96    0.00    0.00    0.00    0.00    0.00     0.28    0.00    0.03    0.00    0.00
  363    0.00    0.00    0.01    3.84    0.00    0.00  192.45    0.00    5.02    3.99    0.00    0.00    0.00    0.00    0.00     0.23    0.00    0.03    0.00    0.00
  364    0.00    0.00    0.01    3.86    0.00    0.00  192.45    0.00    5.82    4.01    0.00    0.00    0.00    0.00    0.00     0.19    0.00    0.02    0.00    0.00
  365    0.00    0.00    0.01    3.88    0.00    0.00  192.45    0.00    8.31    4.02    0.00    0.00    0.00    0.00    0.00     0.16    0.00    0.02    0.00    0.00
   12  194.00   62.57    0.37  117.09  124.53    0.00  192.45   18.40  141.43  183.82    0.09    0.00    0.00    0.02    0.00     7.07    0.01    0.87    0.00    0.00

 2001 1429.70  502.57    1.41  300.72  563.31    0.00  192.45  392.25 1935.02  812.93    0.79    0.01    0.00    0.09   20.07    68.45    0.08    8.46    0.00    0.00
1
    SWAT Sep 7    VER 2018/Rev 670                                                  

    General Input/Output section (file.cio):                                        
    02/05/2024 12:00:00 AM ARCGIS-SWAT interface AV                                 
                                                                                    
    FINAL VALUES

1
    SWAT Sep 7    VER 2018/Rev 670                                                  

    General Input/Output section (file.cio):                                        
    02/05/2024 12:00:00 AM ARCGIS-SWAT interface AV                                 
                                                                                    
                                            Average Plant Values (kg/ha)

  HRU       1 SUB   1 BERM  Yld =  2084.0 BIOM =   2967.5

    HRU STATISTICS

                AVE ANNUAL VALUES

   HRU  SUB  SOIL       AREAkm2    CN     AWCmm   USLE_LS  IRRmm  AUTONkh AUTOPkh  MIXEF PRECmm SURQGENmm   GWQmm    ETmm   SEDth  NO3kgh  ORGNkgh BIOMth   YLDth  SURQmm
      1   1   Habitati   .830E+03   86.22  195.00    0.56    0.00  350.00    0.00    0.20 1429.70  502.57  302.14  392.25    0.79    0.01   68.45    2.97    2.08  502.57



                AVE MONTHLY BASIN VALUES
                   SNOW                      WATER               SED
  MON     RAIN     FALL   SURF Q    LAT Q    YIELD       ET    YIELD      PET
          (MM)     (MM)     (MM)     (MM)     (MM)     (MM)   (T/HA)     (MM)
    1     0.00     0.00     0.00     0.00     0.00     0.00     0.00   169.80
    2     0.00     0.00     0.00     0.00     0.00     0.00     0.00   164.56
    3     0.00     0.00     0.00     0.00     0.00    57.42     0.00   186.24
    4    98.90     0.00    16.39     0.03    16.42    87.18     0.00   184.37
    5    14.10     0.00     2.01     0.03     2.04    56.44     0.00   185.17
    6    57.40     0.00    14.25     0.04    14.28    37.95     0.00   180.22
    7   176.20     0.00    40.08     0.06    40.14     8.73     0.02   142.56
    8    61.60     0.00    17.07     0.08    17.15    16.28     0.01   169.83
    9   149.30     0.00    63.78     0.12    66.16    29.15     0.10   133.78
   10   431.30     0.00   174.86     0.31   239.81    41.99     0.31   140.96
   11   246.90     0.00   111.57     0.37   233.11    38.71     0.25   136.09
   12   194.00     0.00    62.57     0.37   183.82    18.40     0.09   141.43

     AVE ANNUAL BASIN STRESS DAYS
               WATER STRESS DAYS =    11.71
               TEMPERATURE STRESS DAYS =     7.00
               NITROGEN STRESS DAYS =    69.16
               PHOSPHORUS STRESS DAYS =     0.00
               AERATION STRESS DAYS =     0.00
1
    SWAT Sep 7    VER 2018/Rev 670                                                  

    General Input/Output section (file.cio):                                        
    02/05/2024 12:00:00 AM ARCGIS-SWAT interface AV                                 
                                                                                    
         AVE ANNUAL BASIN VALUES

              PRECIP =   1429.7 MM
              SNOW FALL =    0.00 MM
              SNOW MELT =     0.00 MM
              SUBLIMATION =     0.00 MM
              SURFACE RUNOFF Q =   502.57 MM
              LATERAL SOIL Q =    1.41 MM
              TILE Q =     0.00 MM
              GROUNDWATER (SHAL AQ) Q =   300.72 MM
              GROUNDWATER (DEEP AQ) Q =     8.22 MM
              REVAP (SHAL AQ => SOIL/PLANTS) =   38.70 MM
              DEEP AQ RECHARGE =    21.52 MM
              TOTAL AQ RECHARGE =  430.31 MM
              TOTAL WATER YLD =   812.93 MM
              PERCOLATION OUT OF SOIL =  563.31 MM
              ET =    392.3 MM
              PET =   1935.0MM
              TRANSMISSION LOSSES =     0.00 MM
              SEPTIC INFLOW =       0.00 MM
              TOTAL SEDIMENT LOADING =      0.79 T/HA
              TILE FROM IMPOUNDED WATER =     0.000 (MM)
              EVAPORATION FROM IMPOUNDED WATER =     0.000 (MM)
              SEEPAGE INTO SOIL FROM IMPOUNDED WATER =    0.000 (MM)
              OVERFLOW FROM IMPOUNDED WATER =    0.000 (MM)
1
    SWAT Sep 7    VER 2018/Rev 670                                                  

    General Input/Output section (file.cio):                                        
    02/05/2024 12:00:00 AM ARCGIS-SWAT interface AV                                 
                                                                                    
              AVE ANNUAL BASIN VALUES


              NUTRIENTS
                   ORGANIC N =    68.452 (KG/HA)
                   ORGANIC P =     8.456 (KG/HA)
                   NO3 YIELD (SQ) =     0.006 (KG/HA)
                   NO3 YIELD (LAT) =    0.000 (KG/HA)
                   NO3 YIELD (TILE) =    0.000 (KG/HA)
                   SOLP YIELD (TILE) =    0.000(KG/HA)
                   SOLP YIELD (SURF INLET RISER) =    0.000 (KG/HA)
                   SOL P YIELD =    0.084 (KG/HA)
                   NO3 LEACHED =     0.087 (KG/HA)
                   P LEACHED =     0.231 (KG/HA)
                   N UPTAKE =    20.072 (KG/HA)
                   P UPTAKE =    5.663 (KG/HA)
                   NO3 YIELD (GWQ) =     0.001 (KG/HA)
                   ACTIVE TO SOLUTION P FLOW =        21.419 (KG/HA)
                   ACTIVE TO STABLE P FLOW =        78.001 (KG/HA)
                   N FERTILIZER APPLIED =   350.000 (KG/HA)
                   P FERTILIZER APPLIED =     0.000 (KG/HA)
                   N FIXATION =     0.000 (KG/HA)
                   DENITRIFICATION =   399.195 (KG/HA)
                   HUMUS MIN ON ACTIVE ORG N =    29.869 (KG/HA)
                   ACTIVE TO STABLE ORG N =    -2.423 (KG/HA)
                   HUMUS MIN ON ACTIVE ORG P =    5.121 (KG/HA)
                   MIN FROM FRESH ORG N =    3.277 (KG/HA)
                   MIN FROM FRESH ORG P =    0.925 (KG/HA)
                   NO3 IN RAINFALL =     0.000 (KG/HA)
                   INITIAL NO3 IN SOIL =      36.907 (KG/HA)
                   FINAL NO3 IN SOIL =         0.037 (KG/HA)
                   INITIAL ORG N IN SOIL =   16500.000 (KG/HA)
                   FINAL ORG N IN SOIL =     16402.346 (KG/HA)
                   INITIAL MIN P IN SOIL =    3423.068 (KG/HA)
                   FINAL MIN P IN SOIL =      3409.352 (KG/HA)
                   INITIAL ORG P IN SOIL =    2021.250 (KG/HA)
                   FINAL ORG P IN SOIL =    2007.977 (KG/HA)
                   NO3 IN FERT =   350.000 (KG/HA)
                   AMMONIA IN FERT =     0.000 (KG/HA)
                   ORG N IN FERT =     0.000 (KG/HA)
                   MINERAL P IN FERT =     0.000 (KG/HA)
                   ORG P IN FERT =     0.000 (KG/HA)
                   N REMOVED IN YIELD =    16.058 (KG/HA)
                   P REMOVED IN YIELD =     4.530 (KG/HA)
                   AMMONIA VOLATILIZATION =     0.000 (KG/HA)
                   AMMONIA NITRIFICATION =      0.000 (KG/HA)
                   NO3 EVAP-LAYER 2 TO 1 =    0.002

                   DIE-GRO P Q =           0.0 (No/M2)
                   DIE-GRO LP Q =           0.0 (No/M2)
                   DIE-GRO P SED =          0.0 (No/M2)
                   DIE-GRO LP SED =          0.0 (No/M2)
                   BACT P RUNOFF =          0.0 (No/M2)
                   BACT LP RUNOFF =          0.0 (No/M2)
                   BACT P SEDIMENT =          0.0 (No/M2)
                   BACT LP SEDIMENT =          0.0 (No/M2)
                   BACT P INCORP =          0.0 (No/M2)
                   BACT LP INCORP =          0.0 (No/M2)

                   NITRATE SEPTIC =         0.00 (kg/ha)
                   AMMONIA SEPTIC =         0.00 (kg/ha)
                   ORG N SEPTIC =         0.00 (kg/ha)
                   FRESH ORGN SEPTIC =         0.00 (kg/ha)
                   ORG P SEPTIC =         0.00 (kg/ha)
                   FRESH ORGP SEPTIC =         0.00 (kg/ha)
                   SOL P SEPTIC =         0.00 (kg/ha)
                   BOD SEPTIC =         0.00 (kg/ha)
